MODEL 1
REMARK VINA RESULT:    -5.712      0.000      0.000
REMARK INTER + INTRA:          -9.380
REMARK INTER:                  -8.058
REMARK INTRA:                  -1.321
REMARK UNBOUND:                -0.996
REMARK  Name = 
REMARK  12 active torsions:
REMARK  status: ('A' for Active; 'I' for Inactive)
REMARK    1  A    between atoms: C_1  and  C_2
REMARK    2  A    between atoms: C_1  and  O_23
REMARK    3  A    between atoms: C_3  and  O_11
REMARK    4  A    between atoms: C_4  and  O_10
REMARK    5  A    between atoms: C_5  and  O_9
REMARK    6  A    between atoms: C_6  and  O_8
REMARK    7  A    between atoms: O_11  and  C_12
REMARK    8  A    between atoms: C_13  and  C_21
REMARK    9  A    between atoms: C_15  and  O_20
REMARK   10  A    between atoms: C_16  and  O_19
REMARK   11  A    between atoms: C_17  and  O_18
REMARK   12  A    between atoms: C_21  and  O_22
REMARK                            x       y       z     vdW  Elec       q    Type
REMARK                         _______ _______ _______ _____ _____    ______ ____
ROOT
ATOM      1  O   UNL     1      -5.832   9.006   9.369  0.00  0.00    +0.000 OA
ENDROOT
BRANCH   1   3
ATOM      2  C   UNL     1      -4.263   9.325   7.509  0.00  0.00    +0.000 C 
ATOM      3  C   UNL     1      -4.848   8.337   8.551  0.00  0.00    +0.000 C 
ATOM      4  C   UNL     1      -5.325   7.059   7.816  0.00  0.00    +0.000 C 
ATOM      5  C   UNL     1      -4.152   6.462   7.018  0.00  0.00    +0.000 C 
ATOM      6  C   UNL     1      -3.512   7.498   6.083  0.00  0.00    +0.000 C 
ATOM      7  O   UNL     1      -3.205   8.717   6.747  0.00  0.00    +0.000 OA
BRANCH   6   8
ATOM      8  O   UNL     1      -4.267   7.736   4.904  0.00  0.00    +0.000 OA
ATOM      9  H   UNL     1      -5.159   8.031   5.131  0.00  0.00    +0.000 HD
ENDBRANCH   6   8
BRANCH   5  10
ATOM     10  O   UNL     1      -4.565   5.276   6.334  0.00  0.00    +0.000 OA
ATOM     11  H   UNL     1      -5.434   5.428   5.923  0.00  0.00    +0.000 HD
ENDBRANCH   5  10
BRANCH   4  12
ATOM     12  O   UNL     1      -5.813   6.061   8.724  0.00  0.00    +0.000 OA
ATOM     13  H   UNL     1      -6.266   6.497   9.473  0.00  0.00    +0.000 HD
ENDBRANCH   4  12
BRANCH   2  14
ATOM     14  C   UNL     1      -5.302   9.991   6.586  0.00  0.00    +0.000 C 
BRANCH  14  15
ATOM     15  O   UNL     1      -6.230  10.748   7.356  0.00  0.00    +0.000 OA
ATOM     16  H   UNL     1      -7.116  10.576   6.975  0.00  0.00    +0.000 HD
ENDBRANCH  14  15
ENDBRANCH   2  14
ENDBRANCH   1   3
BRANCH   1  17
ATOM     17  C   UNL     1      -5.421   9.323  10.718  0.00  0.00    +0.000 C 
ATOM     18  C   UNL     1      -6.412  10.177  11.543  0.00  0.00    +0.000 C 
ATOM     19  O   UNL     1      -5.895  10.495  12.852  0.00  0.00    +0.000 OA
ATOM     20  C   UNL     1      -5.461   9.382  13.626  0.00  0.00    +0.000 C 
ATOM     21  C   UNL     1      -4.493   8.453  12.863  0.00  0.00    +0.000 C 
ATOM     22  C   UNL     1      -5.044   8.046  11.486  0.00  0.00    +0.000 C 
BRANCH  22  23
ATOM     23  O   UNL     1      -6.148   7.144  11.618  0.00  0.00    +0.000 OA
ATOM     24  H   UNL     1      -6.796   7.575  12.200  0.00  0.00    +0.000 HD
ENDBRANCH  22  23
BRANCH  21  25
ATOM     25  O   UNL     1      -4.168   7.293  13.630  0.00  0.00    +0.000 OA
ATOM     26  H   UNL     1      -4.952   6.718  13.538  0.00  0.00    +0.000 HD
ENDBRANCH  21  25
BRANCH  20  27
ATOM     27  O   UNL     1      -6.591   8.693  14.133  0.00  0.00    +0.000 OA
ATOM     28  H   UNL     1      -6.628   7.857  13.642  0.00  0.00    +0.000 HD
ENDBRANCH  20  27
BRANCH  18  29
ATOM     29  C   UNL     1      -7.856   9.649  11.605  0.00  0.00    +0.000 C 
BRANCH  29  30
ATOM     30  O   UNL     1      -8.201   9.085  10.335  0.00  0.00    +0.000 OA
ATOM     31  H   UNL     1      -7.409   8.596  10.046  0.00  0.00    +0.000 HD
ENDBRANCH  29  30
ENDBRANCH  18  29
ENDBRANCH   1  17
TORSDOF 12
ENDMDL
MODEL 2
REMARK VINA RESULT:    -5.648      1.795      6.359
REMARK INTER + INTRA:          -9.285
REMARK INTER:                  -7.951
REMARK INTRA:                  -1.334
REMARK UNBOUND:                -0.996
REMARK  Name = 
REMARK  12 active torsions:
REMARK  status: ('A' for Active; 'I' for Inactive)
REMARK    1  A    between atoms: C_1  and  C_2
REMARK    2  A    between atoms: C_1  and  O_23
REMARK    3  A    between atoms: C_3  and  O_11
REMARK    4  A    between atoms: C_4  and  O_10
REMARK    5  A    between atoms: C_5  and  O_9
REMARK    6  A    between atoms: C_6  and  O_8
REMARK    7  A    between atoms: O_11  and  C_12
REMARK    8  A    between atoms: C_13  and  C_21
REMARK    9  A    between atoms: C_15  and  O_20
REMARK   10  A    between atoms: C_16  and  O_19
REMARK   11  A    between atoms: C_17  and  O_18
REMARK   12  A    between atoms: C_21  and  O_22
REMARK                            x       y       z     vdW  Elec       q    Type
REMARK                         _______ _______ _______ _____ _____    ______ ____
ROOT
ATOM      1  O   UNL     1      -3.900   7.049  10.464  0.00  0.00    +0.000 OA
ENDROOT
BRANCH   1   3
ATOM      2  C   UNL     1      -4.457   8.544  12.330  0.00  0.00    +0.000 C 
ATOM      3  C   UNL     1      -4.865   8.019  10.928  0.00  0.00    +0.000 C 
ATOM      4  C   UNL     1      -6.340   7.545  10.981  0.00  0.00    +0.000 C 
ATOM      5  C   UNL     1      -7.229   8.702  11.469  0.00  0.00    +0.000 C 
ATOM      6  C   UNL     1      -6.731   9.284  12.798  0.00  0.00    +0.000 C 
ATOM      7  O   UNL     1      -5.342   9.587  12.775  0.00  0.00    +0.000 OA
BRANCH   6   8
ATOM      8  O   UNL     1      -7.059   8.483  13.924  0.00  0.00    +0.000 OA
ATOM      9  H   UNL     1      -6.447   7.738  13.995  0.00  0.00    +0.000 HD
ENDBRANCH   6   8
BRANCH   5  10
ATOM     10  O   UNL     1      -8.598   8.292  11.521  0.00  0.00    +0.000 OA
ATOM     11  H   UNL     1      -8.838   7.861  10.682  0.00  0.00    +0.000 HD
ENDBRANCH   5  10
BRANCH   4  12
ATOM     12  O   UNL     1      -6.816   7.112   9.699  0.00  0.00    +0.000 OA
ATOM     13  H   UNL     1      -6.163   7.352   9.012  0.00  0.00    +0.000 HD
ENDBRANCH   4  12
BRANCH   2  14
ATOM     14  C   UNL     1      -4.289   7.458  13.410  0.00  0.00    +0.000 C 
BRANCH  14  15
ATOM     15  O   UNL     1      -3.033   6.804  13.258  0.00  0.00    +0.000 OA
ATOM     16  H   UNL     1      -3.226   5.851  13.143  0.00  0.00    +0.000 HD
ENDBRANCH  14  15
ENDBRANCH   2  14
ENDBRANCH   1   3
BRANCH   1  17
ATOM     17  C   UNL     1      -2.987   7.508   9.443  0.00  0.00    +0.000 C 
ATOM     18  C   UNL     1      -2.102   6.421   8.790  0.00  0.00    +0.000 C 
ATOM     19  O   UNL     1      -1.182   6.977   7.827  0.00  0.00    +0.000 OA
ATOM     20  C   UNL     1      -1.768   7.787   6.816  0.00  0.00    +0.000 C 
ATOM     21  C   UNL     1      -2.700   8.881   7.380  0.00  0.00    +0.000 C 
ATOM     22  C   UNL     1      -3.734   8.311   8.365  0.00  0.00    +0.000 C 
BRANCH  22  23
ATOM     23  O   UNL     1      -4.716   7.523   7.682  0.00  0.00    +0.000 OA
ATOM     24  H   UNL     1      -5.250   8.137   7.151  0.00  0.00    +0.000 HD
ENDBRANCH  22  23
BRANCH  21  25
ATOM     25  O   UNL     1      -3.355   9.601   6.335  0.00  0.00    +0.000 OA
ATOM     26  H   UNL     1      -4.017   8.971   5.989  0.00  0.00    +0.000 HD
ENDBRANCH  21  25
BRANCH  20  27
ATOM     27  O   UNL     1      -2.414   6.959   5.865  0.00  0.00    +0.000 OA
ATOM     28  H   UNL     1      -1.702   6.524   5.370  0.00  0.00    +0.000 HD
ENDBRANCH  20  27
BRANCH  18  29
ATOM     29  C   UNL     1      -2.850   5.197   8.234  0.00  0.00    +0.000 C 
BRANCH  29  30
ATOM     30  O   UNL     1      -3.402   4.452   9.325  0.00  0.00    +0.000 OA
ATOM     31  H   UNL     1      -4.213   4.042   8.974  0.00  0.00    +0.000 HD
ENDBRANCH  29  30
ENDBRANCH  18  29
ENDBRANCH   1  17
TORSDOF 12
ENDMDL
MODEL 3
REMARK VINA RESULT:    -5.573      1.712      3.369
REMARK INTER + INTRA:          -9.175
REMARK INTER:                  -7.859
REMARK INTRA:                  -1.316
REMARK UNBOUND:                -0.996
REMARK  Name = 
REMARK  12 active torsions:
REMARK  status: ('A' for Active; 'I' for Inactive)
REMARK    1  A    between atoms: C_1  and  C_2
REMARK    2  A    between atoms: C_1  and  O_23
REMARK    3  A    between atoms: C_3  and  O_11
REMARK    4  A    between atoms: C_4  and  O_10
REMARK    5  A    between atoms: C_5  and  O_9
REMARK    6  A    between atoms: C_6  and  O_8
REMARK    7  A    between atoms: O_11  and  C_12
REMARK    8  A    between atoms: C_13  and  C_21
REMARK    9  A    between atoms: C_15  and  O_20
REMARK   10  A    between atoms: C_16  and  O_19
REMARK   11  A    between atoms: C_17  and  O_18
REMARK   12  A    between atoms: C_21  and  O_22
REMARK                            x       y       z     vdW  Elec       q    Type
REMARK                         _______ _______ _______ _____ _____    ______ ____
ROOT
ATOM      1  O   UNL     1      -4.399   8.597   9.955  0.00  0.00    +0.000 OA
ENDROOT
BRANCH   1   3
ATOM      2  C   UNL     1      -2.961   7.412   8.358  0.00  0.00    +0.000 C 
ATOM      3  C   UNL     1      -4.286   8.187   8.575  0.00  0.00    +0.000 C 
ATOM      4  C   UNL     1      -4.384   9.316   7.516  0.00  0.00    +0.000 C 
ATOM      5  C   UNL     1      -4.272   8.705   6.108  0.00  0.00    +0.000 C 
ATOM      6  C   UNL     1      -3.013   7.840   5.960  0.00  0.00    +0.000 C 
ATOM      7  O   UNL     1      -2.868   6.900   7.016  0.00  0.00    +0.000 OA
BRANCH   6   8
ATOM      8  O   UNL     1      -1.825   8.599   5.787  0.00  0.00    +0.000 OA
ATOM      9  H   UNL     1      -1.344   8.295   5.005  0.00  0.00    +0.000 HD
ENDBRANCH   6   8
BRANCH   5  10
ATOM     10  O   UNL     1      -4.366   9.726   5.112  0.00  0.00    +0.000 OA
ATOM     11  H   UNL     1      -3.805  10.479   5.368  0.00  0.00    +0.000 HD
ENDBRANCH   5  10
BRANCH   4  12
ATOM     12  O   UNL     1      -5.623  10.035   7.604  0.00  0.00    +0.000 OA
ATOM     13  H   UNL     1      -6.060   9.826   8.453  0.00  0.00    +0.000 HD
ENDBRANCH   4  12
BRANCH   2  14
ATOM     14  C   UNL     1      -1.683   8.178   8.751  0.00  0.00    +0.000 C 
BRANCH  14  15
ATOM     15  O   UNL     1      -1.704   8.488  10.141  0.00  0.00    +0.000 OA
ATOM     16  H   UNL     1      -2.255   9.291  10.241  0.00  0.00    +0.000 HD
ENDBRANCH  14  15
ENDBRANCH   2  14
ENDBRANCH   1   3
BRANCH   1  17
ATOM     17  C   UNL     1      -5.460   7.975  10.713  0.00  0.00    +0.000 C 
ATOM     18  C   UNL     1      -5.106   7.568  12.162  0.00  0.00    +0.000 C 
ATOM     19  O   UNL     1      -6.203   6.901  12.822  0.00  0.00    +0.000 OA
ATOM     20  C   UNL     1      -7.442   7.601  12.810  0.00  0.00    +0.000 C 
ATOM     21  C   UNL     1      -7.855   8.078  11.401  0.00  0.00    +0.000 C 
ATOM     22  C   UNL     1      -6.727   8.847  10.694  0.00  0.00    +0.000 C 
BRANCH  22  23
ATOM     23  O   UNL     1      -6.515  10.127  11.300  0.00  0.00    +0.000 OA
ATOM     24  H   UNL     1      -5.703  10.491  10.911  0.00  0.00    +0.000 HD
ENDBRANCH  22  23
BRANCH  21  25
ATOM     25  O   UNL     1      -9.043   8.870  11.444  0.00  0.00    +0.000 OA
ATOM     26  H   UNL     1      -9.182   9.144  10.517  0.00  0.00    +0.000 HD
ENDBRANCH  21  25
BRANCH  20  27
ATOM     27  O   UNL     1      -7.392   8.661  13.750  0.00  0.00    +0.000 OA
ATOM     28  H   UNL     1      -6.512   8.608  14.156  0.00  0.00    +0.000 HD
ENDBRANCH  20  27
BRANCH  18  29
ATOM     29  C   UNL     1      -4.495   8.677  13.036  0.00  0.00    +0.000 C 
BRANCH  29  30
ATOM     30  O   UNL     1      -3.112   8.829  12.696  0.00  0.00    +0.000 OA
ATOM     31  H   UNL     1      -3.020   9.753  12.397  0.00  0.00    +0.000 HD
ENDBRANCH  29  30
ENDBRANCH  18  29
ENDBRANCH   1  17
TORSDOF 12
ENDMDL
MODEL 4
REMARK VINA RESULT:    -5.512      1.555      3.663
REMARK INTER + INTRA:          -9.087
REMARK INTER:                  -7.791
REMARK INTRA:                  -1.295
REMARK UNBOUND:                -0.996
REMARK  Name = 
REMARK  12 active torsions:
REMARK  status: ('A' for Active; 'I' for Inactive)
REMARK    1  A    between atoms: C_1  and  C_2
REMARK    2  A    between atoms: C_1  and  O_23
REMARK    3  A    between atoms: C_3  and  O_11
REMARK    4  A    between atoms: C_4  and  O_10
REMARK    5  A    between atoms: C_5  and  O_9
REMARK    6  A    between atoms: C_6  and  O_8
REMARK    7  A    between atoms: O_11  and  C_12
REMARK    8  A    between atoms: C_13  and  C_21
REMARK    9  A    between atoms: C_15  and  O_20
REMARK   10  A    between atoms: C_16  and  O_19
REMARK   11  A    between atoms: C_17  and  O_18
REMARK   12  A    between atoms: C_21  and  O_22
REMARK                            x       y       z     vdW  Elec       q    Type
REMARK                         _______ _______ _______ _____ _____    ______ ____
ROOT
ATOM      1  O   UNL     1      -4.001   7.088   9.603  0.00  0.00    +0.000 OA
ENDROOT
BRANCH   1   3
ATOM      2  C   UNL     1      -4.232   5.667   7.615  0.00  0.00    +0.000 C 
ATOM      3  C   UNL     1      -4.395   7.089   8.213  0.00  0.00    +0.000 C 
ATOM      4  C   UNL     1      -3.667   8.104   7.296  0.00  0.00    +0.000 C 
ATOM      5  C   UNL     1      -4.222   7.990   5.866  0.00  0.00    +0.000 C 
ATOM      6  C   UNL     1      -4.162   6.548   5.344  0.00  0.00    +0.000 C 
ATOM      7  O   UNL     1      -4.714   5.611   6.260  0.00  0.00    +0.000 OA
BRANCH   6   8
ATOM      8  O   UNL     1      -2.862   6.151   4.931  0.00  0.00    +0.000 OA
ATOM      9  H   UNL     1      -2.481   6.814   4.339  0.00  0.00    +0.000 HD
ENDBRANCH   6   8
BRANCH   5  10
ATOM     10  O   UNL     1      -3.569   8.922   5.000  0.00  0.00    +0.000 OA
ATOM     11  H   UNL     1      -3.334   8.478   4.168  0.00  0.00    +0.000 HD
ENDBRANCH   5  10
BRANCH   4  12
ATOM     12  O   UNL     1      -3.835   9.457   7.744  0.00  0.00    +0.000 OA
ATOM     13  H   UNL     1      -2.960   9.889   7.809  0.00  0.00    +0.000 HD
ENDBRANCH   4  12
BRANCH   2  14
ATOM     14  C   UNL     1      -2.815   5.070   7.726  0.00  0.00    +0.000 C 
BRANCH  14  15
ATOM     15  O   UNL     1      -2.711   3.900   6.922  0.00  0.00    +0.000 OA
ATOM     16  H   UNL     1      -1.762   3.794   6.704  0.00  0.00    +0.000 HD
ENDBRANCH  14  15
ENDBRANCH   2  14
ENDBRANCH   1   3
BRANCH   1  17
ATOM     17  C   UNL     1      -5.080   7.116  10.563  0.00  0.00    +0.000 C 
ATOM     18  C   UNL     1      -4.668   7.341  12.037  0.00  0.00    +0.000 C 
ATOM     19  O   UNL     1      -5.799   7.294  12.930  0.00  0.00    +0.000 OA
ATOM     20  C   UNL     1      -6.879   8.160  12.599  0.00  0.00    +0.000 C 
ATOM     21  C   UNL     1      -7.332   8.028  11.129  0.00  0.00    +0.000 C 
ATOM     22  C   UNL     1      -6.155   8.135  10.146  0.00  0.00    +0.000 C 
BRANCH  22  23
ATOM     23  O   UNL     1      -5.646   9.472  10.094  0.00  0.00    +0.000 OA
ATOM     24  H   UNL     1      -6.345  10.024   9.705  0.00  0.00    +0.000 HD
ENDBRANCH  22  23
BRANCH  21  25
ATOM     25  O   UNL     1      -8.338   8.988  10.804  0.00  0.00    +0.000 OA
ATOM     26  H   UNL     1      -8.115   9.764  11.353  0.00  0.00    +0.000 HD
ENDBRANCH  21  25
BRANCH  20  27
ATOM     27  O   UNL     1      -6.536   9.491  12.945  0.00  0.00    +0.000 OA
ATOM     28  H   UNL     1      -6.846  10.040  12.207  0.00  0.00    +0.000 HD
ENDBRANCH  20  27
BRANCH  18  29
ATOM     29  C   UNL     1      -3.774   8.564  12.300  0.00  0.00    +0.000 C 
BRANCH  29  30
ATOM     30  O   UNL     1      -2.531   8.392  11.610  0.00  0.00    +0.000 OA
ATOM     31  H   UNL     1      -2.551   9.033  10.877  0.00  0.00    +0.000 HD
ENDBRANCH  29  30
ENDBRANCH  18  29
ENDBRANCH   1  17
TORSDOF 12
ENDMDL
MODEL 5
REMARK VINA RESULT:    -5.444      1.589      6.209
REMARK INTER + INTRA:          -8.987
REMARK INTER:                  -7.723
REMARK INTRA:                  -1.263
REMARK UNBOUND:                -0.996
REMARK  Name = 
REMARK  12 active torsions:
REMARK  status: ('A' for Active; 'I' for Inactive)
REMARK    1  A    between atoms: C_1  and  C_2
REMARK    2  A    between atoms: C_1  and  O_23
REMARK    3  A    between atoms: C_3  and  O_11
REMARK    4  A    between atoms: C_4  and  O_10
REMARK    5  A    between atoms: C_5  and  O_9
REMARK    6  A    between atoms: C_6  and  O_8
REMARK    7  A    between atoms: O_11  and  C_12
REMARK    8  A    between atoms: C_13  and  C_21
REMARK    9  A    between atoms: C_15  and  O_20
REMARK   10  A    between atoms: C_16  and  O_19
REMARK   11  A    between atoms: C_17  and  O_18
REMARK   12  A    between atoms: C_21  and  O_22
REMARK                            x       y       z     vdW  Elec       q    Type
REMARK                         _______ _______ _______ _____ _____    ______ ____
ROOT
ATOM      1  O   UNL     1      -5.092   8.272   8.618  0.00  0.00    +0.000 OA
ENDROOT
BRANCH   1   3
ATOM      2  C   UNL     1      -6.637   7.706  10.439  0.00  0.00    +0.000 C 
ATOM      3  C   UNL     1      -5.169   7.696   9.940  0.00  0.00    +0.000 C 
ATOM      4  C   UNL     1      -4.268   8.343  11.023  0.00  0.00    +0.000 C 
ATOM      5  C   UNL     1      -4.453   7.595  12.354  0.00  0.00    +0.000 C 
ATOM      6  C   UNL     1      -5.930   7.513  12.762  0.00  0.00    +0.000 C 
ATOM      7  O   UNL     1      -6.763   7.044  11.710  0.00  0.00    +0.000 OA
BRANCH   6   8
ATOM      8  O   UNL     1      -6.434   8.723  13.308  0.00  0.00    +0.000 OA
ATOM      9  H   UNL     1      -5.815   9.080  13.960  0.00  0.00    +0.000 HD
ENDBRANCH   6   8
BRANCH   5  10
ATOM     10  O   UNL     1      -3.628   8.171  13.370  0.00  0.00    +0.000 OA
ATOM     11  H   UNL     1      -3.801   7.725  14.217  0.00  0.00    +0.000 HD
ENDBRANCH   5  10
BRANCH   4  12
ATOM     12  O   UNL     1      -2.879   8.304  10.666  0.00  0.00    +0.000 OA
ATOM     13  H   UNL     1      -2.503   9.205  10.726  0.00  0.00    +0.000 HD
ENDBRANCH   4  12
BRANCH   2  14
ATOM     14  C   UNL     1      -7.308   9.093  10.465  0.00  0.00    +0.000 C 
BRANCH  14  15
ATOM     15  O   UNL     1      -8.604   9.001  11.050  0.00  0.00    +0.000 OA
ATOM     16  H   UNL     1      -9.183   9.608  10.545  0.00  0.00    +0.000 HD
ENDBRANCH  14  15
ENDBRANCH   2  14
ENDBRANCH   1   3
BRANCH   1  17
ATOM     17  C   UNL     1      -4.890   7.339   7.534  0.00  0.00    +0.000 C 
ATOM     18  C   UNL     1      -4.417   7.950   6.194  0.00  0.00    +0.000 C 
ATOM     19  O   UNL     1      -4.300   6.956   5.155  0.00  0.00    +0.000 OA
ATOM     20  C   UNL     1      -3.497   5.826   5.475  0.00  0.00    +0.000 C 
ATOM     21  C   UNL     1      -3.879   5.173   6.821  0.00  0.00    +0.000 C 
ATOM     22  C   UNL     1      -3.953   6.198   7.964  0.00  0.00    +0.000 C 
BRANCH  22  23
ATOM     23  O   UNL     1      -2.648   6.671   8.318  0.00  0.00    +0.000 OA
ATOM     24  H   UNL     1      -2.339   7.222   7.580  0.00  0.00    +0.000 HD
ENDBRANCH  22  23
BRANCH  21  25
ATOM     25  O   UNL     1      -2.983   4.114   7.162  0.00  0.00    +0.000 OA
ATOM     26  H   UNL     1      -2.293   4.153   6.472  0.00  0.00    +0.000 HD
ENDBRANCH  21  25
BRANCH  20  27
ATOM     27  O   UNL     1      -2.129   6.190   5.416  0.00  0.00    +0.000 OA
ATOM     28  H   UNL     1      -1.695   5.491   4.901  0.00  0.00    +0.000 HD
ENDBRANCH  20  27
BRANCH  18  29
ATOM     29  C   UNL     1      -3.172   8.850   6.275  0.00  0.00    +0.000 C 
BRANCH  29  30
ATOM     30  O   UNL     1      -3.062   9.376   7.603  0.00  0.00    +0.000 OA
ATOM     31  H   UNL     1      -3.850   9.936   7.725  0.00  0.00    +0.000 HD
ENDBRANCH  29  30
ENDBRANCH  18  29
ENDBRANCH   1  17
TORSDOF 12
ENDMDL
MODEL 6
REMARK VINA RESULT:    -5.379      1.531      2.554
REMARK INTER + INTRA:          -8.891
REMARK INTER:                  -8.066
REMARK INTRA:                  -0.824
REMARK UNBOUND:                -0.996
REMARK  Name = 
REMARK  12 active torsions:
REMARK  status: ('A' for Active; 'I' for Inactive)
REMARK    1  A    between atoms: C_1  and  C_2
REMARK    2  A    between atoms: C_1  and  O_23
REMARK    3  A    between atoms: C_3  and  O_11
REMARK    4  A    between atoms: C_4  and  O_10
REMARK    5  A    between atoms: C_5  and  O_9
REMARK    6  A    between atoms: C_6  and  O_8
REMARK    7  A    between atoms: O_11  and  C_12
REMARK    8  A    between atoms: C_13  and  C_21
REMARK    9  A    between atoms: C_15  and  O_20
REMARK   10  A    between atoms: C_16  and  O_19
REMARK   11  A    between atoms: C_17  and  O_18
REMARK   12  A    between atoms: C_21  and  O_22
REMARK                            x       y       z     vdW  Elec       q    Type
REMARK                         _______ _______ _______ _____ _____    ______ ____
ROOT
ATOM      1  O   UNL     1      -5.992   7.662   9.425  0.00  0.00    +0.000 OA
ENDROOT
BRANCH   1   3
ATOM      2  C   UNL     1      -3.852   8.262   8.383  0.00  0.00    +0.000 C 
ATOM      3  C   UNL     1      -4.722   7.130   8.989  0.00  0.00    +0.000 C 
ATOM      4  C   UNL     1      -4.782   5.953   7.983  0.00  0.00    +0.000 C 
ATOM      5  C   UNL     1      -3.352   5.494   7.649  0.00  0.00    +0.000 C 
ATOM      6  C   UNL     1      -2.477   6.659   7.168  0.00  0.00    +0.000 C 
ATOM      7  O   UNL     1      -2.540   7.784   8.035  0.00  0.00    +0.000 OA
BRANCH   6   8
ATOM      8  O   UNL     1      -2.730   7.038   5.823  0.00  0.00    +0.000 OA
ATOM      9  H   UNL     1      -2.123   7.741   5.552  0.00  0.00    +0.000 HD
ENDBRANCH   6   8
BRANCH   5  10
ATOM     10  O   UNL     1      -3.381   4.403   6.725  0.00  0.00    +0.000 OA
ATOM     11  H   UNL     1      -2.474   4.087   6.571  0.00  0.00    +0.000 HD
ENDBRANCH   5  10
BRANCH   4  12
ATOM     12  O   UNL     1      -5.511   4.832   8.504  0.00  0.00    +0.000 OA
ATOM     13  H   UNL     1      -5.954   5.091   9.336  0.00  0.00    +0.000 HD
ENDBRANCH   4  12
BRANCH   2  14
ATOM     14  C   UNL     1      -4.496   9.024   7.209  0.00  0.00    +0.000 C 
BRANCH  14  15
ATOM     15  O   UNL     1      -5.514   9.897   7.690  0.00  0.00    +0.000 OA
ATOM     16  H   UNL     1      -5.057  10.648   8.121  0.00  0.00    +0.000 HD
ENDBRANCH  14  15
ENDBRANCH   2  14
ENDBRANCH   1   3
BRANCH   1  17
ATOM     17  C   UNL     1      -6.369   7.359  10.786  0.00  0.00    +0.000 C 
ATOM     18  C   UNL     1      -5.239   7.456  11.838  0.00  0.00    +0.000 C 
ATOM     19  O   UNL     1      -5.691   7.079  13.156  0.00  0.00    +0.000 OA
ATOM     20  C   UNL     1      -6.845   7.765  13.628  0.00  0.00    +0.000 C 
ATOM     21  C   UNL     1      -8.014   7.749  12.620  0.00  0.00    +0.000 C 
ATOM     22  C   UNL     1      -7.578   8.205  11.218  0.00  0.00    +0.000 C 
BRANCH  22  23
ATOM     23  O   UNL     1      -7.296   9.609  11.196  0.00  0.00    +0.000 OA
ATOM     24  H   UNL     1      -7.375   9.898  10.272  0.00  0.00    +0.000 HD
ENDBRANCH  22  23
BRANCH  21  25
ATOM     25  O   UNL     1      -9.112   8.539  13.080  0.00  0.00    +0.000 OA
ATOM     26  H   UNL     1      -9.767   8.482  12.357  0.00  0.00    +0.000 HD
ENDBRANCH  21  25
BRANCH  20  27
ATOM     27  O   UNL     1      -6.483   9.077  14.021  0.00  0.00    +0.000 OA
ATOM     28  H   UNL     1      -6.390   9.045  14.986  0.00  0.00    +0.000 HD
ENDBRANCH  20  27
BRANCH  18  29
ATOM     29  C   UNL     1      -4.454   8.779  11.853  0.00  0.00    +0.000 C 
BRANCH  29  30
ATOM     30  O   UNL     1      -3.641   8.825  13.031  0.00  0.00    +0.000 OA
ATOM     31  H   UNL     1      -3.831   9.688  13.442  0.00  0.00    +0.000 HD
ENDBRANCH  29  30
ENDBRANCH  18  29
ENDBRANCH   1  17
TORSDOF 12
ENDMDL
MODEL 7
REMARK VINA RESULT:    -5.377      1.815      6.750
REMARK INTER + INTRA:          -8.888
REMARK INTER:                  -7.560
REMARK INTRA:                  -1.328
REMARK UNBOUND:                -0.996
REMARK  Name = 
REMARK  12 active torsions:
REMARK  status: ('A' for Active; 'I' for Inactive)
REMARK    1  A    between atoms: C_1  and  C_2
REMARK    2  A    between atoms: C_1  and  O_23
REMARK    3  A    between atoms: C_3  and  O_11
REMARK    4  A    between atoms: C_4  and  O_10
REMARK    5  A    between atoms: C_5  and  O_9
REMARK    6  A    between atoms: C_6  and  O_8
REMARK    7  A    between atoms: O_11  and  C_12
REMARK    8  A    between atoms: C_13  and  C_21
REMARK    9  A    between atoms: C_15  and  O_20
REMARK   10  A    between atoms: C_16  and  O_19
REMARK   11  A    between atoms: C_17  and  O_18
REMARK   12  A    between atoms: C_21  and  O_22
REMARK                            x       y       z     vdW  Elec       q    Type
REMARK                         _______ _______ _______ _____ _____    ______ ____
ROOT
ATOM      1  O   UNL     1      -4.824   8.182   7.405  0.00  0.00    +0.000 OA
ENDROOT
BRANCH   1   3
ATOM      2  C   UNL     1      -4.939   7.238   9.668  0.00  0.00    +0.000 C 
ATOM      3  C   UNL     1      -5.025   8.518   8.795  0.00  0.00    +0.000 C 
ATOM      4  C   UNL     1      -6.338   9.268   9.135  0.00  0.00    +0.000 C 
ATOM      5  C   UNL     1      -6.378   9.569  10.643  0.00  0.00    +0.000 C 
ATOM      6  C   UNL     1      -6.167   8.302  11.484  0.00  0.00    +0.000 C 
ATOM      7  O   UNL     1      -5.032   7.554  11.069  0.00  0.00    +0.000 OA
BRANCH   6   8
ATOM      8  O   UNL     1      -7.321   7.477  11.561  0.00  0.00    +0.000 OA
ATOM      9  H   UNL     1      -7.194   6.673  11.039  0.00  0.00    +0.000 HD
ENDBRANCH   6   8
BRANCH   5  10
ATOM     10  O   UNL     1      -7.579  10.267  10.982  0.00  0.00    +0.000 OA
ATOM     11  H   UNL     1      -7.667  10.306  11.950  0.00  0.00    +0.000 HD
ENDBRANCH   5  10
BRANCH   4  12
ATOM     12  O   UNL     1      -6.456  10.506   8.419  0.00  0.00    +0.000 OA
ATOM     13  H   UNL     1      -5.571  10.909   8.320  0.00  0.00    +0.000 HD
ENDBRANCH   4  12
BRANCH   2  14
ATOM     14  C   UNL     1      -5.925   6.118   9.283  0.00  0.00    +0.000 C 
BRANCH  14  15
ATOM     15  O   UNL     1      -5.427   5.389   8.166  0.00  0.00    +0.000 OA
ATOM     16  H   UNL     1      -4.493   5.173   8.366  0.00  0.00    +0.000 HD
ENDBRANCH  14  15
ENDBRANCH   2  14
ENDBRANCH   1   3
BRANCH   1  17
ATOM     17  C   UNL     1      -3.725   8.851   6.748  0.00  0.00    +0.000 C 
ATOM     18  C   UNL     1      -2.655   7.931   6.114  0.00  0.00    +0.000 C 
ATOM     19  O   UNL     1      -1.568   8.681   5.535  0.00  0.00    +0.000 OA
ATOM     20  C   UNL     1      -1.946   9.688   4.602  0.00  0.00    +0.000 C 
ATOM     21  C   UNL     1      -3.041  10.632   5.141  0.00  0.00    +0.000 C 
ATOM     22  C   UNL     1      -4.243   9.863   5.712  0.00  0.00    +0.000 C 
BRANCH  22  23
ATOM     23  O   UNL     1      -4.997   9.235   4.668  0.00  0.00    +0.000 OA
ATOM     24  H   UNL     1      -4.390   9.110   3.920  0.00  0.00    +0.000 HD
ENDBRANCH  22  23
BRANCH  21  25
ATOM     25  O   UNL     1      -3.474  11.557   4.142  0.00  0.00    +0.000 OA
ATOM     26  H   UNL     1      -2.930  11.336   3.361  0.00  0.00    +0.000 HD
ENDBRANCH  21  25
BRANCH  20  27
ATOM     27  O   UNL     1      -2.309   9.078   3.375  0.00  0.00    +0.000 OA
ATOM     28  H   UNL     1      -2.735   8.240   3.616  0.00  0.00    +0.000 HD
ENDBRANCH  20  27
BRANCH  18  29
ATOM     29  C   UNL     1      -3.187   6.851   5.156  0.00  0.00    +0.000 C 
BRANCH  29  30
ATOM     30  O   UNL     1      -4.108   6.013   5.863  0.00  0.00    +0.000 OA
ATOM     31  H   UNL     1      -3.649   5.160   5.973  0.00  0.00    +0.000 HD
ENDBRANCH  29  30
ENDBRANCH  18  29
ENDBRANCH   1  17
TORSDOF 12
ENDMDL
MODEL 8
REMARK VINA RESULT:    -5.354      2.179      6.482
REMARK INTER + INTRA:          -8.854
REMARK INTER:                  -7.857
REMARK INTRA:                  -0.996
REMARK UNBOUND:                -0.996
REMARK  Name = 
REMARK  12 active torsions:
REMARK  status: ('A' for Active; 'I' for Inactive)
REMARK    1  A    between atoms: C_1  and  C_2
REMARK    2  A    between atoms: C_1  and  O_23
REMARK    3  A    between atoms: C_3  and  O_11
REMARK    4  A    between atoms: C_4  and  O_10
REMARK    5  A    between atoms: C_5  and  O_9
REMARK    6  A    between atoms: C_6  and  O_8
REMARK    7  A    between atoms: O_11  and  C_12
REMARK    8  A    between atoms: C_13  and  C_21
REMARK    9  A    between atoms: C_15  and  O_20
REMARK   10  A    between atoms: C_16  and  O_19
REMARK   11  A    between atoms: C_17  and  O_18
REMARK   12  A    between atoms: C_21  and  O_22
REMARK                            x       y       z     vdW  Elec       q    Type
REMARK                         _______ _______ _______ _____ _____    ______ ____
ROOT
ATOM      1  O   UNL     1      -3.725   7.316  10.333  0.00  0.00    +0.000 OA
ENDROOT
BRANCH   1   3
ATOM      2  C   UNL     1      -4.523   8.986  11.946  0.00  0.00    +0.000 C 
ATOM      3  C   UNL     1      -4.885   8.071  10.747  0.00  0.00    +0.000 C 
ATOM      4  C   UNL     1      -6.145   7.244  11.110  0.00  0.00    +0.000 C 
ATOM      5  C   UNL     1      -7.286   8.200  11.500  0.00  0.00    +0.000 C 
ATOM      6  C   UNL     1      -6.861   9.176  12.604  0.00  0.00    +0.000 C 
ATOM      7  O   UNL     1      -5.631   9.827  12.315  0.00  0.00    +0.000 OA
BRANCH   6   8
ATOM      8  O   UNL     1      -6.835   8.590  13.897  0.00  0.00    +0.000 OA
ATOM      9  H   UNL     1      -7.592   7.999  14.013  0.00  0.00    +0.000 HD
ENDBRANCH   6   8
BRANCH   5  10
ATOM     10  O   UNL     1      -8.464   7.460  11.835  0.00  0.00    +0.000 OA
ATOM     11  H   UNL     1      -9.217   8.071  11.910  0.00  0.00    +0.000 HD
ENDBRANCH   5  10
BRANCH   4  12
ATOM     12  O   UNL     1      -6.588   6.424  10.020  0.00  0.00    +0.000 OA
ATOM     13  H   UNL     1      -5.819   5.975   9.617  0.00  0.00    +0.000 HD
ENDBRANCH   4  12
BRANCH   2  14
ATOM     14  C   UNL     1      -3.946   8.255  13.173  0.00  0.00    +0.000 C 
BRANCH  14  15
ATOM     15  O   UNL     1      -2.531   8.146  13.060  0.00  0.00    +0.000 OA
ATOM     16  H   UNL     1      -2.327   8.137  12.102  0.00  0.00    +0.000 HD
ENDBRANCH  14  15
ENDBRANCH   2  14
ENDBRANCH   1   3
BRANCH   1  17
ATOM     17  C   UNL     1      -3.344   7.457   8.946  0.00  0.00    +0.000 C 
ATOM     18  C   UNL     1      -1.920   8.003   8.689  0.00  0.00    +0.000 C 
ATOM     19  O   UNL     1      -1.647   8.166   7.282  0.00  0.00    +0.000 OA
ATOM     20  C   UNL     1      -1.870   7.015   6.476  0.00  0.00    +0.000 C 
ATOM     21  C   UNL     1      -3.260   6.381   6.698  0.00  0.00    +0.000 C 
ATOM     22  C   UNL     1      -3.557   6.137   8.186  0.00  0.00    +0.000 C 
BRANCH  22  23
ATOM     23  O   UNL     1      -2.751   5.073   8.706  0.00  0.00    +0.000 OA
ATOM     24  H   UNL     1      -3.130   4.828   9.567  0.00  0.00    +0.000 HD
ENDBRANCH  22  23
BRANCH  21  25
ATOM     25  O   UNL     1      -3.406   5.167   5.958  0.00  0.00    +0.000 OA
ATOM     26  H   UNL     1      -4.317   5.207   5.609  0.00  0.00    +0.000 HD
ENDBRANCH  21  25
BRANCH  20  27
ATOM     27  O   UNL     1      -0.814   6.092   6.674  0.00  0.00    +0.000 OA
ATOM     28  H   UNL     1      -0.292   6.446   7.412  0.00  0.00    +0.000 HD
ENDBRANCH  20  27
BRANCH  18  29
ATOM     29  C   UNL     1      -0.782   7.267   9.416  0.00  0.00    +0.000 C 
BRANCH  29  30
ATOM     30  O   UNL     1       0.474   7.786   8.964  0.00  0.00    +0.000 OA
ATOM     31  H   UNL     1       0.571   7.466   8.048  0.00  0.00    +0.000 HD
ENDBRANCH  29  30
ENDBRANCH  18  29
ENDBRANCH   1  17
TORSDOF 12
ENDMDL
MODEL 9
REMARK VINA RESULT:    -5.315      2.002      6.733
REMARK INTER + INTRA:          -8.797
REMARK INTER:                  -7.440
REMARK INTRA:                  -1.357
REMARK UNBOUND:                -0.996
REMARK  Name = 
REMARK  12 active torsions:
REMARK  status: ('A' for Active; 'I' for Inactive)
REMARK    1  A    between atoms: C_1  and  C_2
REMARK    2  A    between atoms: C_1  and  O_23
REMARK    3  A    between atoms: C_3  and  O_11
REMARK    4  A    between atoms: C_4  and  O_10
REMARK    5  A    between atoms: C_5  and  O_9
REMARK    6  A    between atoms: C_6  and  O_8
REMARK    7  A    between atoms: O_11  and  C_12
REMARK    8  A    between atoms: C_13  and  C_21
REMARK    9  A    between atoms: C_15  and  O_20
REMARK   10  A    between atoms: C_16  and  O_19
REMARK   11  A    between atoms: C_17  and  O_18
REMARK   12  A    between atoms: C_21  and  O_22
REMARK                            x       y       z     vdW  Elec       q    Type
REMARK                         _______ _______ _______ _____ _____    ______ ____
ROOT
ATOM      1  O   UNL     1      -3.715   7.765   8.560  0.00  0.00    +0.000 OA
ENDROOT
BRANCH   1   3
ATOM      2  C   UNL     1      -2.704   7.865  10.794  0.00  0.00    +0.000 C 
ATOM      3  C   UNL     1      -3.821   8.393   9.857  0.00  0.00    +0.000 C 
ATOM      4  C   UNL     1      -5.186   8.250  10.576  0.00  0.00    +0.000 C 
ATOM      5  C   UNL     1      -5.134   8.994  11.922  0.00  0.00    +0.000 C 
ATOM      6  C   UNL     1      -3.945   8.540  12.780  0.00  0.00    +0.000 C 
ATOM      7  O   UNL     1      -2.718   8.548  12.061  0.00  0.00    +0.000 OA
BRANCH   6   8
ATOM      8  O   UNL     1      -4.154   7.288  13.416  0.00  0.00    +0.000 OA
ATOM      9  H   UNL     1      -5.081   7.024  13.342  0.00  0.00    +0.000 HD
ENDBRANCH   6   8
BRANCH   5  10
ATOM     10  O   UNL     1      -6.386   8.882  12.604  0.00  0.00    +0.000 OA
ATOM     11  H   UNL     1      -6.901   8.155  12.214  0.00  0.00    +0.000 HD
ENDBRANCH   5  10
BRANCH   4  12
ATOM     12  O   UNL     1      -6.267   8.787   9.800  0.00  0.00    +0.000 OA
ATOM     13  H   UNL     1      -5.905   9.316   9.062  0.00  0.00    +0.000 HD
ENDBRANCH   4  12
BRANCH   2  14
ATOM     14  C   UNL     1      -2.679   6.337  10.986  0.00  0.00    +0.000 C 
BRANCH  14  15
ATOM     15  O   UNL     1      -2.204   5.701   9.804  0.00  0.00    +0.000 OA
ATOM     16  H   UNL     1      -1.241   5.572   9.923  0.00  0.00    +0.000 HD
ENDBRANCH  14  15
ENDBRANCH   2  14
ENDBRANCH   1   3
BRANCH   1  17
ATOM     17  C   UNL     1      -2.884   8.448   7.596  0.00  0.00    +0.000 C 
ATOM     18  C   UNL     1      -1.915   7.554   6.786  0.00  0.00    +0.000 C 
ATOM     19  O   UNL     1      -1.084   8.325   5.893  0.00  0.00    +0.000 OA
ATOM     20  C   UNL     1      -1.779   9.199   5.011  0.00  0.00    +0.000 C 
ATOM     21  C   UNL     1      -2.798  10.105   5.734  0.00  0.00    +0.000 C 
ATOM     22  C   UNL     1      -3.740   9.306   6.649  0.00  0.00    +0.000 C 
BRANCH  22  23
ATOM     23  O   UNL     1      -4.659   8.519   5.883  0.00  0.00    +0.000 OA
ATOM     24  H   UNL     1      -4.899   9.047   5.103  0.00  0.00    +0.000 HD
ENDBRANCH  22  23
BRANCH  21  25
ATOM     25  O   UNL     1      -3.553  10.887   4.807  0.00  0.00    +0.000 OA
ATOM     26  H   UNL     1      -3.890  11.633   5.341  0.00  0.00    +0.000 HD
ENDBRANCH  21  25
BRANCH  20  27
ATOM     27  O   UNL     1      -2.369   8.443   3.968  0.00  0.00    +0.000 OA
ATOM     28  H   UNL     1      -1.663   8.301   3.317  0.00  0.00    +0.000 HD
ENDBRANCH  20  27
BRANCH  18  29
ATOM     29  C   UNL     1      -2.554   6.346   6.082  0.00  0.00    +0.000 C 
BRANCH  29  30
ATOM     30  O   UNL     1      -3.422   5.674   7.002  0.00  0.00    +0.000 OA
ATOM     31  H   UNL     1      -3.639   6.338   7.683  0.00  0.00    +0.000 HD
ENDBRANCH  29  30
ENDBRANCH  18  29
ENDBRANCH   1  17
TORSDOF 12
ENDMDL
