REMARK  Name = 
REMARK  12 active torsions:
REMARK  status: ('A' for Active; 'I' for Inactive)
REMARK    1  A    between atoms: C_1  and  C_2
REMARK    2  A    between atoms: C_1  and  O_23
REMARK    3  A    between atoms: C_3  and  O_11
REMARK    4  A    between atoms: C_4  and  O_10
REMARK    5  A    between atoms: C_5  and  O_9
REMARK    6  A    between atoms: C_6  and  O_8
REMARK    7  A    between atoms: O_11  and  C_12
REMARK    8  A    between atoms: C_13  and  C_21
REMARK    9  A    between atoms: C_15  and  O_20
REMARK   10  A    between atoms: C_16  and  O_19
REMARK   11  A    between atoms: C_17  and  O_18
REMARK   12  A    between atoms: C_21  and  O_22
REMARK                            x       y       z     vdW  Elec       q    Type
REMARK                         _______ _______ _______ _____ _____    ______ ____
ROOT
ATOM      1  O   UNL     1       1.881   3.141  -2.898  0.00  0.00    +0.000 OA
ENDROOT
BRANCH   1   3
ATOM      2  C   UNL     1       1.544   5.491  -3.521  0.00  0.00    +0.000 C 
ATOM      3  C   UNL     1       0.990   4.044  -3.588  0.00  0.00    +0.000 C 
ATOM      4  C   UNL     1      -0.484   4.050  -3.108  0.00  0.00    +0.000 C 
ATOM      5  C   UNL     1      -1.294   5.041  -3.962  0.00  0.00    +0.000 C 
ATOM      6  C   UNL     1      -0.655   6.436  -3.978  0.00  0.00    +0.000 C 
ATOM      7  O   UNL     1       0.732   6.398  -4.288  0.00  0.00    +0.000 OA
BRANCH   6   8
ATOM      8  O   UNL     1      -0.891   7.179  -2.791  0.00  0.00    +0.000 OA
ATOM      9  H   UNL     1      -0.989   6.583  -2.036  0.00  0.00    +0.000 HD
ENDBRANCH   6   8
BRANCH   5  10
ATOM     10  O   UNL     1      -2.661   5.061  -3.542  0.00  0.00    +0.000 OA
ATOM     11  H   UNL     1      -2.759   5.674  -2.793  0.00  0.00    +0.000 HD
ENDBRANCH   5  10
BRANCH   4  12
ATOM     12  O   UNL     1      -1.093   2.755  -3.211  0.00  0.00    +0.000 OA
ATOM     13  H   UNL     1      -1.556   2.681  -4.069  0.00  0.00    +0.000 HD
ENDBRANCH   4  12
BRANCH   2  14
ATOM     14  C   UNL     1       1.790   6.031  -2.099  0.00  0.00    +0.000 C 
BRANCH  14  15
ATOM     15  O   UNL     1       2.164   7.404  -2.153  0.00  0.00    +0.000 OA
ATOM     16  H   UNL     1       1.504   7.852  -2.721  0.00  0.00    +0.000 HD
ENDBRANCH  14  15
ENDBRANCH   2  14
ENDBRANCH   1   3
BRANCH   1  17
ATOM     17  C   UNL     1       1.505   1.746  -2.919  0.00  0.00    +0.000 C 
ATOM     18  C   UNL     1       1.286   1.126  -4.319  0.00  0.00    +0.000 C 
ATOM     19  O   UNL     1       0.856  -0.249  -4.242  0.00  0.00    +0.000 OA
ATOM     20  C   UNL     1       1.682  -1.107  -3.463  0.00  0.00    +0.000 C 
ATOM     21  C   UNL     1       1.983  -0.545  -2.057  0.00  0.00    +0.000 C 
ATOM     22  C   UNL     1       2.502   0.901  -2.108  0.00  0.00    +0.000 C 
BRANCH  22  23
ATOM     23  O   UNL     1       3.827   0.955  -2.649  0.00  0.00    +0.000 OA
ATOM     24  H   UNL     1       4.060   1.895  -2.729  0.00  0.00    +0.000 HD
ENDBRANCH  22  23
BRANCH  21  25
ATOM     25  O   UNL     1       2.902  -1.377  -1.347  0.00  0.00    +0.000 OA
ATOM     26  H   UNL     1       3.751  -1.247  -1.812  0.00  0.00    +0.000 HD
ENDBRANCH  21  25
BRANCH  20  27
ATOM     27  O   UNL     1       2.859  -1.413  -4.190  0.00  0.00    +0.000 OA
ATOM     28  H   UNL     1       2.593  -2.070  -4.853  0.00  0.00    +0.000 HD
ENDBRANCH  20  27
BRANCH  18  29
ATOM     29  C   UNL     1       2.438   1.316  -5.320  0.00  0.00    +0.000 C 
BRANCH  29  30
ATOM     30  O   UNL     1       2.022   0.842  -6.606  0.00  0.00    +0.000 OA
ATOM     31  H   UNL     1       1.734  -0.078  -6.461  0.00  0.00    +0.000 HD
ENDBRANCH  29  30
ENDBRANCH  18  29
ENDBRANCH   1  17
TORSDOF 12
