MODEL 1
REMARK VINA RESULT:    -5.766      0.000      0.000
REMARK INTER + INTRA:          -7.297
REMARK INTER:                  -7.124
REMARK INTRA:                  -0.173
REMARK UNBOUND:                -0.184
REMARK  Name = 
REMARK  6 active torsions:
REMARK  status: ('A' for Active; 'I' for Inactive)
REMARK    1  A    between atoms: C_3  and  O_13
REMARK    2  A    between atoms: C_4  and  O_12
REMARK    3  A    between atoms: C_6  and  C_7
REMARK    4  A    between atoms: C_8  and  C_9
REMARK    5  A    between atoms: C_9  and  O_11
REMARK    6  A    between atoms: O_13  and  C_14
REMARK                            x       y       z     vdW  Elec       q    Type
REMARK                         _______ _______ _______ _____ _____    ______ ____
ROOT
ATOM      1  C   UNL     1      -6.028   9.739   8.698  0.00  0.00    +0.000 A 
ATOM      2  C   UNL     1      -6.586   9.041   9.777  0.00  0.00    +0.000 A 
ATOM      3  C   UNL     1      -6.516   7.643   9.871  0.00  0.00    +0.000 A 
ATOM      4  C   UNL     1      -5.866   6.954   8.844  0.00  0.00    +0.000 A 
ATOM      5  C   UNL     1      -5.312   7.655   7.761  0.00  0.00    +0.000 A 
ATOM      6  C   UNL     1      -5.370   9.051   7.679  0.00  0.00    +0.000 A 
ENDROOT
BRANCH   6   7
ATOM      7  C   UNL     1      -4.807   9.798   6.543  0.00  0.00    +0.000 C 
ATOM      8  C   UNL     1      -3.502   9.784   6.222  0.00  0.00    +0.000 C 
BRANCH   8   9
ATOM      9  C   UNL     1      -2.914  10.515   5.093  0.00  0.00    +0.000 C 
ATOM     10  O   UNL     1      -3.523  11.303   4.394  0.00  0.00    +0.000 OA
BRANCH   9  11
ATOM     11  O   UNL     1      -1.616  10.247   4.882  0.00  0.00    +0.000 OA
ATOM     12  H   UNL     1      -1.158  10.859   5.497  0.00  0.00    +0.000 HD
ENDBRANCH   9  11
ENDBRANCH   8   9
ENDBRANCH   6   7
BRANCH   4  13
ATOM     13  O   UNL     1      -5.680   5.605   8.759  0.00  0.00    +0.000 OA
ATOM     14  H   UNL     1      -5.700   5.329   7.836  0.00  0.00    +0.000 HD
ENDBRANCH   4  13
BRANCH   3  15
ATOM     15  O   UNL     1      -7.113   7.183  11.008  0.00  0.00    +0.000 OA
ATOM     16  C   UNL     1      -6.538   7.397  12.280  0.00  0.00    +0.000 C 
ENDBRANCH   3  15
TORSDOF 5
ENDMDL
MODEL 2
REMARK VINA RESULT:    -5.761      0.820      1.883
REMARK INTER + INTRA:          -7.291
REMARK INTER:                  -7.134
REMARK INTRA:                  -0.157
REMARK UNBOUND:                -0.184
REMARK  Name = 
REMARK  6 active torsions:
REMARK  status: ('A' for Active; 'I' for Inactive)
REMARK    1  A    between atoms: C_3  and  O_13
REMARK    2  A    between atoms: C_4  and  O_12
REMARK    3  A    between atoms: C_6  and  C_7
REMARK    4  A    between atoms: C_8  and  C_9
REMARK    5  A    between atoms: C_9  and  O_11
REMARK    6  A    between atoms: O_13  and  C_14
REMARK                            x       y       z     vdW  Elec       q    Type
REMARK                         _______ _______ _______ _____ _____    ______ ____
ROOT
ATOM      1  C   UNL     1      -5.244   7.783   7.808  0.00  0.00    +0.000 A 
ATOM      2  C   UNL     1      -5.804   7.165   8.934  0.00  0.00    +0.000 A 
ATOM      3  C   UNL     1      -6.512   7.890   9.903  0.00  0.00    +0.000 A 
ATOM      4  C   UNL     1      -6.646   9.268   9.714  0.00  0.00    +0.000 A 
ATOM      5  C   UNL     1      -6.080   9.887   8.589  0.00  0.00    +0.000 A 
ATOM      6  C   UNL     1      -5.388   9.157   7.616  0.00  0.00    +0.000 A 
ENDROOT
BRANCH   6   7
ATOM      7  C   UNL     1      -4.776   9.794   6.439  0.00  0.00    +0.000 C 
ATOM      8  C   UNL     1      -3.448   9.898   6.260  0.00  0.00    +0.000 C 
BRANCH   8   9
ATOM      9  C   UNL     1      -2.810  10.524   5.095  0.00  0.00    +0.000 C 
ATOM     10  O   UNL     1      -3.370  11.297   4.341  0.00  0.00    +0.000 OA
BRANCH   9  11
ATOM     11  O   UNL     1      -1.527  10.175   4.919  0.00  0.00    +0.000 OA
ATOM     12  H   UNL     1      -1.552   9.630   4.104  0.00  0.00    +0.000 HD
ENDBRANCH   9  11
ENDBRANCH   8   9
ENDBRANCH   6   7
BRANCH   4  13
ATOM     13  O   UNL     1      -7.306  10.142  10.528  0.00  0.00    +0.000 OA
ATOM     14  H   UNL     1      -8.256  10.001  10.458  0.00  0.00    +0.000 HD
ENDBRANCH   4  13
BRANCH   3  15
ATOM     15  O   UNL     1      -6.977   7.083  10.898  0.00  0.00    +0.000 OA
ATOM     16  C   UNL     1      -6.599   7.281  12.245  0.00  0.00    +0.000 C 
ENDBRANCH   3  15
TORSDOF 5
ENDMDL
MODEL 3
REMARK VINA RESULT:    -5.668      1.266      1.599
REMARK INTER + INTRA:          -7.178
REMARK INTER:                  -6.998
REMARK INTRA:                  -0.180
REMARK UNBOUND:                -0.184
REMARK  Name = 
REMARK  6 active torsions:
REMARK  status: ('A' for Active; 'I' for Inactive)
REMARK    1  A    between atoms: C_3  and  O_13
REMARK    2  A    between atoms: C_4  and  O_12
REMARK    3  A    between atoms: C_6  and  C_7
REMARK    4  A    between atoms: C_8  and  C_9
REMARK    5  A    between atoms: C_9  and  O_11
REMARK    6  A    between atoms: O_13  and  C_14
REMARK                            x       y       z     vdW  Elec       q    Type
REMARK                         _______ _______ _______ _____ _____    ______ ____
ROOT
ATOM      1  C   UNL     1      -5.769  10.032   7.919  0.00  0.00    +0.000 A 
ATOM      2  C   UNL     1      -6.580  10.050   9.062  0.00  0.00    +0.000 A 
ATOM      3  C   UNL     1      -6.845   8.889   9.801  0.00  0.00    +0.000 A 
ATOM      4  C   UNL     1      -6.271   7.693   9.361  0.00  0.00    +0.000 A 
ATOM      5  C   UNL     1      -5.463   7.675   8.213  0.00  0.00    +0.000 A 
ATOM      6  C   UNL     1      -5.189   8.840   7.487  0.00  0.00    +0.000 A 
ENDROOT
BRANCH   6   7
ATOM      7  C   UNL     1      -4.357   8.835   6.274  0.00  0.00    +0.000 C 
ATOM      8  C   UNL     1      -3.172   9.463   6.185  0.00  0.00    +0.000 C 
BRANCH   8   9
ATOM      9  C   UNL     1      -2.320   9.471   4.990  0.00  0.00    +0.000 C 
ATOM     10  O   UNL     1      -2.162   8.515   4.255  0.00  0.00    +0.000 OA
BRANCH   9  11
ATOM     11  O   UNL     1      -1.712  10.645   4.758  0.00  0.00    +0.000 OA
ATOM     12  H   UNL     1      -1.660  10.681   3.779  0.00  0.00    +0.000 HD
ENDBRANCH   9  11
ENDBRANCH   8   9
ENDBRANCH   6   7
BRANCH   4  13
ATOM     13  O   UNL     1      -6.394   6.467   9.946  0.00  0.00    +0.000 OA
ATOM     14  H   UNL     1      -7.075   6.494  10.626  0.00  0.00    +0.000 HD
ENDBRANCH   4  13
BRANCH   3  15
ATOM     15  O   UNL     1      -7.643   9.145  10.876  0.00  0.00    +0.000 OA
ATOM     16  C   UNL     1      -7.667  10.418  11.490  0.00  0.00    +0.000 C 
ENDBRANCH   3  15
TORSDOF 5
ENDMDL
MODEL 4
REMARK VINA RESULT:    -5.581      1.666      2.548
REMARK INTER + INTRA:          -7.070
REMARK INTER:                  -6.858
REMARK INTRA:                  -0.212
REMARK UNBOUND:                -0.184
REMARK  Name = 
REMARK  6 active torsions:
REMARK  status: ('A' for Active; 'I' for Inactive)
REMARK    1  A    between atoms: C_3  and  O_13
REMARK    2  A    between atoms: C_4  and  O_12
REMARK    3  A    between atoms: C_6  and  C_7
REMARK    4  A    between atoms: C_8  and  C_9
REMARK    5  A    between atoms: C_9  and  O_11
REMARK    6  A    between atoms: O_13  and  C_14
REMARK                            x       y       z     vdW  Elec       q    Type
REMARK                         _______ _______ _______ _____ _____    ______ ____
ROOT
ATOM      1  C   UNL     1      -5.954   7.875   9.183  0.00  0.00    +0.000 A 
ATOM      2  C   UNL     1      -6.514   7.296  10.330  0.00  0.00    +0.000 A 
ATOM      3  C   UNL     1      -7.279   8.041  11.238  0.00  0.00    +0.000 A 
ATOM      4  C   UNL     1      -7.471   9.398  10.966  0.00  0.00    +0.000 A 
ATOM      5  C   UNL     1      -6.906   9.978   9.820  0.00  0.00    +0.000 A 
ATOM      6  C   UNL     1      -6.155   9.227   8.908  0.00  0.00    +0.000 A 
ENDROOT
BRANCH   6   7
ATOM      7  C   UNL     1      -5.543   9.824   7.710  0.00  0.00    +0.000 C 
ATOM      8  C   UNL     1      -4.722   9.152   6.885  0.00  0.00    +0.000 C 
BRANCH   8   9
ATOM      9  C   UNL     1      -4.101   9.720   5.682  0.00  0.00    +0.000 C 
ATOM     10  O   UNL     1      -4.631   9.753   4.588  0.00  0.00    +0.000 OA
BRANCH   9  11
ATOM     11  O   UNL     1      -2.872  10.220   5.883  0.00  0.00    +0.000 OA
ATOM     12  H   UNL     1      -2.315   9.417   5.973  0.00  0.00    +0.000 HD
ENDBRANCH   9  11
ENDBRANCH   8   9
ENDBRANCH   6   7
BRANCH   4  13
ATOM     13  O   UNL     1      -8.192  10.285  11.712  0.00  0.00    +0.000 OA
ATOM     14  H   UNL     1      -8.497  11.009  11.156  0.00  0.00    +0.000 HD
ENDBRANCH   4  13
BRANCH   3  15
ATOM     15  O   UNL     1      -7.732   7.271  12.267  0.00  0.00    +0.000 OA
ATOM     16  C   UNL     1      -7.169   7.363  13.560  0.00  0.00    +0.000 C 
ENDBRANCH   3  15
TORSDOF 5
ENDMDL
MODEL 5
REMARK VINA RESULT:    -5.455      2.460      6.312
REMARK INTER + INTRA:          -6.914
REMARK INTER:                  -6.738
REMARK INTRA:                  -0.176
REMARK UNBOUND:                -0.184
REMARK  Name = 
REMARK  6 active torsions:
REMARK  status: ('A' for Active; 'I' for Inactive)
REMARK    1  A    between atoms: C_3  and  O_13
REMARK    2  A    between atoms: C_4  and  O_12
REMARK    3  A    between atoms: C_6  and  C_7
REMARK    4  A    between atoms: C_8  and  C_9
REMARK    5  A    between atoms: C_9  and  O_11
REMARK    6  A    between atoms: O_13  and  C_14
REMARK                            x       y       z     vdW  Elec       q    Type
REMARK                         _______ _______ _______ _____ _____    ______ ____
ROOT
ATOM      1  C   UNL     1      -6.071   8.843   8.979  0.00  0.00    +0.000 A 
ATOM      2  C   UNL     1      -5.384   8.436   7.827  0.00  0.00    +0.000 A 
ATOM      3  C   UNL     1      -5.116   7.085   7.563  0.00  0.00    +0.000 A 
ATOM      4  C   UNL     1      -5.559   6.141   8.493  0.00  0.00    +0.000 A 
ATOM      5  C   UNL     1      -6.243   6.550   9.647  0.00  0.00    +0.000 A 
ATOM      6  C   UNL     1      -6.522   7.898   9.900  0.00  0.00    +0.000 A 
ENDROOT
BRANCH   6   7
ATOM      7  C   UNL     1      -7.224   8.344  11.114  0.00  0.00    +0.000 C 
ATOM      8  C   UNL     1      -7.494   7.535  12.152  0.00  0.00    +0.000 C 
BRANCH   8   9
ATOM      9  C   UNL     1      -8.188   7.953  13.376  0.00  0.00    +0.000 C 
ATOM     10  O   UNL     1      -7.721   7.860  14.495  0.00  0.00    +0.000 OA
BRANCH   9  11
ATOM     11  O   UNL     1      -9.411   8.464  13.166  0.00  0.00    +0.000 OA
ATOM     12  H   UNL     1      -9.224   9.331  12.747  0.00  0.00    +0.000 HD
ENDBRANCH   9  11
ENDBRANCH   8   9
ENDBRANCH   6   7
BRANCH   4  13
ATOM     13  O   UNL     1      -5.413   4.786   8.411  0.00  0.00    +0.000 OA
ATOM     14  H   UNL     1      -4.702   4.498   8.992  0.00  0.00    +0.000 HD
ENDBRANCH   4  13
BRANCH   3  15
ATOM     15  O   UNL     1      -4.451   6.924   6.384  0.00  0.00    +0.000 OA
ATOM     16  C   UNL     1      -3.084   7.256   6.257  0.00  0.00    +0.000 C 
ENDBRANCH   3  15
TORSDOF 5
ENDMDL
MODEL 6
REMARK VINA RESULT:    -5.415      2.247      5.590
REMARK INTER + INTRA:          -6.864
REMARK INTER:                  -6.677
REMARK INTRA:                  -0.187
REMARK UNBOUND:                -0.184
REMARK  Name = 
REMARK  6 active torsions:
REMARK  status: ('A' for Active; 'I' for Inactive)
REMARK    1  A    between atoms: C_3  and  O_13
REMARK    2  A    between atoms: C_4  and  O_12
REMARK    3  A    between atoms: C_6  and  C_7
REMARK    4  A    between atoms: C_8  and  C_9
REMARK    5  A    between atoms: C_9  and  O_11
REMARK    6  A    between atoms: O_13  and  C_14
REMARK                            x       y       z     vdW  Elec       q    Type
REMARK                         _______ _______ _______ _____ _____    ______ ____
ROOT
ATOM      1  C   UNL     1      -5.332   9.739   7.469  0.00  0.00    +0.000 A 
ATOM      2  C   UNL     1      -4.689   8.991   6.473  0.00  0.00    +0.000 A 
ATOM      3  C   UNL     1      -4.597   7.593   6.539  0.00  0.00    +0.000 A 
ATOM      4  C   UNL     1      -5.171   6.956   7.643  0.00  0.00    +0.000 A 
ATOM      5  C   UNL     1      -5.810   7.706   8.642  0.00  0.00    +0.000 A 
ATOM      6  C   UNL     1      -5.913   9.100   8.564  0.00  0.00    +0.000 A 
ENDROOT
BRANCH   6   7
ATOM      7  C   UNL     1      -6.566   9.902   9.611  0.00  0.00    +0.000 C 
ATOM      8  C   UNL     1      -7.453   9.397  10.485  0.00  0.00    +0.000 C 
BRANCH   8   9
ATOM      9  C   UNL     1      -8.116  10.171  11.541  0.00  0.00    +0.000 C 
ATOM     10  O   UNL     1      -7.785  11.292  11.880  0.00  0.00    +0.000 OA
BRANCH   9  11
ATOM     11  O   UNL     1      -9.146   9.537  12.122  0.00  0.00    +0.000 OA
ATOM     12  H   UNL     1      -8.735   9.106  12.901  0.00  0.00    +0.000 HD
ENDBRANCH   9  11
ENDBRANCH   8   9
ENDBRANCH   6   7
BRANCH   4  13
ATOM     13  O   UNL     1      -5.201   5.613   7.883  0.00  0.00    +0.000 OA
ATOM     14  H   UNL     1      -4.463   5.364   8.448  0.00  0.00    +0.000 HD
ENDBRANCH   4  13
BRANCH   3  15
ATOM     15  O   UNL     1      -3.944   7.078   5.459  0.00  0.00    +0.000 OA
ATOM     16  C   UNL     1      -2.612   6.619   5.554  0.00  0.00    +0.000 C 
ENDBRANCH   3  15
TORSDOF 5
ENDMDL
MODEL 7
REMARK VINA RESULT:    -5.411      2.603      6.628
REMARK INTER + INTRA:          -6.860
REMARK INTER:                  -6.684
REMARK INTRA:                  -0.176
REMARK UNBOUND:                -0.184
REMARK  Name = 
REMARK  6 active torsions:
REMARK  status: ('A' for Active; 'I' for Inactive)
REMARK    1  A    between atoms: C_3  and  O_13
REMARK    2  A    between atoms: C_4  and  O_12
REMARK    3  A    between atoms: C_6  and  C_7
REMARK    4  A    between atoms: C_8  and  C_9
REMARK    5  A    between atoms: C_9  and  O_11
REMARK    6  A    between atoms: O_13  and  C_14
REMARK                            x       y       z     vdW  Elec       q    Type
REMARK                         _______ _______ _______ _____ _____    ______ ____
ROOT
ATOM      1  C   UNL     1      -5.844   6.364   9.526  0.00  0.00    +0.000 A 
ATOM      2  C   UNL     1      -5.374   6.402   8.206  0.00  0.00    +0.000 A 
ATOM      3  C   UNL     1      -5.248   7.606   7.499  0.00  0.00    +0.000 A 
ATOM      4  C   UNL     1      -5.611   8.786   8.154  0.00  0.00    +0.000 A 
ATOM      5  C   UNL     1      -6.087   8.746   9.473  0.00  0.00    +0.000 A 
ATOM      6  C   UNL     1      -6.196   7.544  10.181  0.00  0.00    +0.000 A 
ENDROOT
BRANCH   6   7
ATOM      7  C   UNL     1      -6.708   7.484  11.560  0.00  0.00    +0.000 C 
ATOM      8  C   UNL     1      -7.962   7.827  11.899  0.00  0.00    +0.000 C 
BRANCH   8   9
ATOM      9  C   UNL     1      -8.500   7.774  13.264  0.00  0.00    +0.000 C 
ATOM     10  O   UNL     1      -7.818   7.777  14.271  0.00  0.00    +0.000 OA
BRANCH   9  11
ATOM     11  O   UNL     1      -9.840   7.723  13.323  0.00  0.00    +0.000 OA
ATOM     12  H   UNL     1     -10.120   8.404  12.676  0.00  0.00    +0.000 HD
ENDBRANCH   9  11
ENDBRANCH   8   9
ENDBRANCH   6   7
BRANCH   4  13
ATOM     13  O   UNL     1      -5.548  10.052   7.647  0.00  0.00    +0.000 OA
ATOM     14  H   UNL     1      -4.635  10.278   7.443  0.00  0.00    +0.000 HD
ENDBRANCH   4  13
BRANCH   3  15
ATOM     15  O   UNL     1      -4.759   7.405   6.242  0.00  0.00    +0.000 OA
ATOM     16  C   UNL     1      -4.339   6.127   5.810  0.00  0.00    +0.000 C 
ENDBRANCH   3  15
TORSDOF 5
ENDMDL
MODEL 8
REMARK VINA RESULT:    -5.153      2.168      5.723
REMARK INTER + INTRA:          -6.542
REMARK INTER:                  -6.346
REMARK INTRA:                  -0.196
REMARK UNBOUND:                -0.184
REMARK  Name = 
REMARK  6 active torsions:
REMARK  status: ('A' for Active; 'I' for Inactive)
REMARK    1  A    between atoms: C_3  and  O_13
REMARK    2  A    between atoms: C_4  and  O_12
REMARK    3  A    between atoms: C_6  and  C_7
REMARK    4  A    between atoms: C_8  and  C_9
REMARK    5  A    between atoms: C_9  and  O_11
REMARK    6  A    between atoms: O_13  and  C_14
REMARK                            x       y       z     vdW  Elec       q    Type
REMARK                         _______ _______ _______ _____ _____    ______ ____
ROOT
ATOM      1  C   UNL     1      -5.486   7.525   7.814  0.00  0.00    +0.000 A 
ATOM      2  C   UNL     1      -4.661   6.819   6.928  0.00  0.00    +0.000 A 
ATOM      3  C   UNL     1      -3.706   7.465   6.130  0.00  0.00    +0.000 A 
ATOM      4  C   UNL     1      -3.599   8.854   6.241  0.00  0.00    +0.000 A 
ATOM      5  C   UNL     1      -4.429   9.560   7.124  0.00  0.00    +0.000 A 
ATOM      6  C   UNL     1      -5.370   8.910   7.931  0.00  0.00    +0.000 A 
ENDROOT
BRANCH   6   7
ATOM      7  C   UNL     1      -6.258   9.639   8.850  0.00  0.00    +0.000 C 
ATOM      8  C   UNL     1      -6.808   9.084   9.944  0.00  0.00    +0.000 C 
BRANCH   8   9
ATOM      9  C   UNL     1      -7.693   9.787  10.880  0.00  0.00    +0.000 C 
ATOM     10  O   UNL     1      -7.448  10.874  11.370  0.00  0.00    +0.000 OA
BRANCH   9  11
ATOM     11  O   UNL     1      -8.828   9.129  11.162  0.00  0.00    +0.000 OA
ATOM     12  H   UNL     1      -8.617   8.667  12.001  0.00  0.00    +0.000 HD
ENDBRANCH   9  11
ENDBRANCH   8   9
ENDBRANCH   6   7
BRANCH   4  13
ATOM     13  O   UNL     1      -2.728   9.660   5.566  0.00  0.00    +0.000 OA
ATOM     14  H   UNL     1      -1.884   9.210   5.455  0.00  0.00    +0.000 HD
ENDBRANCH   4  13
BRANCH   3  15
ATOM     15  O   UNL     1      -3.011   6.581   5.359  0.00  0.00    +0.000 OA
ATOM     16  C   UNL     1      -3.247   5.190   5.438  0.00  0.00    +0.000 C 
ENDBRANCH   3  15
TORSDOF 5
ENDMDL
MODEL 9
REMARK VINA RESULT:    -5.113      2.249      6.062
REMARK INTER + INTRA:          -6.492
REMARK INTER:                  -6.308
REMARK INTRA:                  -0.184
REMARK UNBOUND:                -0.184
REMARK  Name = 
REMARK  6 active torsions:
REMARK  status: ('A' for Active; 'I' for Inactive)
REMARK    1  A    between atoms: C_3  and  O_13
REMARK    2  A    between atoms: C_4  and  O_12
REMARK    3  A    between atoms: C_6  and  C_7
REMARK    4  A    between atoms: C_8  and  C_9
REMARK    5  A    between atoms: C_9  and  O_11
REMARK    6  A    between atoms: O_13  and  C_14
REMARK                            x       y       z     vdW  Elec       q    Type
REMARK                         _______ _______ _______ _____ _____    ______ ____
ROOT
ATOM      1  C   UNL     1      -5.736   9.743   8.189  0.00  0.00    +0.000 A 
ATOM      2  C   UNL     1      -5.120   9.688   6.931  0.00  0.00    +0.000 A 
ATOM      3  C   UNL     1      -3.858   9.104   6.750  0.00  0.00    +0.000 A 
ATOM      4  C   UNL     1      -3.221   8.571   7.873  0.00  0.00    +0.000 A 
ATOM      5  C   UNL     1      -3.837   8.631   9.133  0.00  0.00    +0.000 A 
ATOM      6  C   UNL     1      -5.103   9.201   9.307  0.00  0.00    +0.000 A 
ENDROOT
BRANCH   6   7
ATOM      7  C   UNL     1      -5.756   9.286  10.623  0.00  0.00    +0.000 C 
ATOM      8  C   UNL     1      -5.113   9.069  11.783  0.00  0.00    +0.000 C 
BRANCH   8   9
ATOM      9  C   UNL     1      -5.736   9.151  13.110  0.00  0.00    +0.000 C 
ATOM     10  O   UNL     1      -6.478   8.304  13.572  0.00  0.00    +0.000 OA
BRANCH   9  11
ATOM     11  O   UNL     1      -5.417  10.257  13.799  0.00  0.00    +0.000 OA
ATOM     12  H   UNL     1      -5.911  10.964  13.331  0.00  0.00    +0.000 HD
ENDBRANCH   9  11
ENDBRANCH   8   9
ENDBRANCH   6   7
BRANCH   4  13
ATOM     13  O   UNL     1      -2.005   7.951   7.903  0.00  0.00    +0.000 OA
ATOM     14  H   UNL     1      -1.415   8.356   7.259  0.00  0.00    +0.000 HD
ENDBRANCH   4  13
BRANCH   3  15
ATOM     15  O   UNL     1      -3.463   9.151   5.445  0.00  0.00    +0.000 OA
ATOM     16  C   UNL     1      -2.702  10.230   4.944  0.00  0.00    +0.000 C 
ENDBRANCH   3  15
TORSDOF 5
ENDMDL
