MODEL 1
REMARK VINA RESULT:    -4.873      0.000      0.000
REMARK INTER + INTRA:          -6.460
REMARK INTER:                  -6.283
REMARK INTRA:                  -0.176
REMARK UNBOUND:                -0.304
REMARK  Name = 
REMARK  7 active torsions:
REMARK  status: ('A' for Active; 'I' for Inactive)
REMARK    1  A    between atoms: C_1  and  C_2
REMARK    2  A    between atoms: C_1  and  O_14
REMARK    3  A    between atoms: C_3  and  O_13
REMARK    4  A    between atoms: C_4  and  O_12
REMARK    5  A    between atoms: C_5  and  O_11
REMARK    6  A    between atoms: C_6  and  C_8
REMARK    7  A    between atoms: C_8  and  O_10
REMARK                            x       y       z     vdW  Elec       q    Type
REMARK                         _______ _______ _______ _____ _____    ______ ____
ROOT
ATOM      1  C   UNL     1      -5.780   7.513  12.547  0.00  0.00    +0.000 C 
ATOM      2  C   UNL     1      -6.224   8.013  11.167  0.00  0.00    +0.000 C 
ATOM      3  C   UNL     1      -7.402   8.990  11.286  0.00  0.00    +0.000 C 
ATOM      4  C   UNL     1      -8.552   8.388  12.116  0.00  0.00    +0.000 C 
ATOM      5  C   UNL     1      -8.001   7.862  13.450  0.00  0.00    +0.000 C 
ATOM      6  O   UNL     1      -6.913   6.952  13.232  0.00  0.00    +0.000 OA
ENDROOT
BRANCH   5   7
ATOM      7  C   UNL     1      -9.118   7.142  14.191  0.00  0.00    +0.000 C 
ATOM      8  O   UNL     1      -9.658   7.491  15.232  0.00  0.00    +0.000 OA
BRANCH   7   9
ATOM      9  O   UNL     1      -9.508   6.006  13.570  0.00  0.00    +0.000 OA
ATOM     10  H   UNL     1     -10.423   6.193  13.278  0.00  0.00    +0.000 HD
ENDBRANCH   7   9
ENDBRANCH   5   7
BRANCH   4  11
ATOM     11  O   UNL     1      -9.581   9.362  12.322  0.00  0.00    +0.000 OA
ATOM     12  H   UNL     1     -10.450   8.943  12.205  0.00  0.00    +0.000 HD
ENDBRANCH   4  11
BRANCH   3  13
ATOM     13  O   UNL     1      -7.859   9.345   9.977  0.00  0.00    +0.000 OA
ATOM     14  H   UNL     1      -8.794   9.059   9.928  0.00  0.00    +0.000 HD
ENDBRANCH   3  13
BRANCH   2  15
ATOM     15  O   UNL     1      -6.650   6.900  10.356  0.00  0.00    +0.000 OA
ATOM     16  H   UNL     1      -5.961   6.740   9.680  0.00  0.00    +0.000 HD
ENDBRANCH   2  15
BRANCH   1  17
ATOM     17  C   UNL     1      -5.058   8.593  13.373  0.00  0.00    +0.000 C 
BRANCH  17  18
ATOM     18  O   UNL     1      -3.800   8.937  12.803  0.00  0.00    +0.000 OA
ATOM     19  H   UNL     1      -3.095   8.548  13.350  0.00  0.00    +0.000 HD
ENDBRANCH  17  18
ENDBRANCH   1  17
TORSDOF 7
ENDMDL
MODEL 2
REMARK VINA RESULT:    -4.713      1.776      4.051
REMARK INTER + INTRA:          -6.257
REMARK INTER:                  -5.928
REMARK INTRA:                  -0.329
REMARK UNBOUND:                -0.304
REMARK  Name = 
REMARK  7 active torsions:
REMARK  status: ('A' for Active; 'I' for Inactive)
REMARK    1  A    between atoms: C_1  and  C_2
REMARK    2  A    between atoms: C_1  and  O_14
REMARK    3  A    between atoms: C_3  and  O_13
REMARK    4  A    between atoms: C_4  and  O_12
REMARK    5  A    between atoms: C_5  and  O_11
REMARK    6  A    between atoms: C_6  and  C_8
REMARK    7  A    between atoms: C_8  and  O_10
REMARK                            x       y       z     vdW  Elec       q    Type
REMARK                         _______ _______ _______ _____ _____    ______ ____
ROOT
ATOM      1  C   UNL     1      -5.989   7.386  13.147  0.00  0.00    +0.000 C 
ATOM      2  C   UNL     1      -5.524   8.818  13.438  0.00  0.00    +0.000 C 
ATOM      3  C   UNL     1      -6.207   9.822  12.500  0.00  0.00    +0.000 C 
ATOM      4  C   UNL     1      -6.042   9.415  11.022  0.00  0.00    +0.000 C 
ATOM      5  C   UNL     1      -6.475   7.952  10.842  0.00  0.00    +0.000 C 
ATOM      6  O   UNL     1      -5.775   7.094  11.756  0.00  0.00    +0.000 OA
ENDROOT
BRANCH   5   7
ATOM      7  C   UNL     1      -6.169   7.524   9.414  0.00  0.00    +0.000 C 
ATOM      8  O   UNL     1      -5.948   8.252   8.457  0.00  0.00    +0.000 OA
BRANCH   7   9
ATOM      9  O   UNL     1      -6.151   6.180   9.266  0.00  0.00    +0.000 OA
ATOM     10  H   UNL     1      -6.802   6.007   8.557  0.00  0.00    +0.000 HD
ENDBRANCH   7   9
ENDBRANCH   5   7
BRANCH   4  11
ATOM     11  O   UNL     1      -6.794  10.293  10.177  0.00  0.00    +0.000 OA
ATOM     12  H   UNL     1      -7.737  10.233  10.408  0.00  0.00    +0.000 HD
ENDBRANCH   4  11
BRANCH   3  13
ATOM     13  O   UNL     1      -5.665  11.128  12.725  0.00  0.00    +0.000 OA
ATOM     14  H   UNL     1      -6.090  11.462  13.541  0.00  0.00    +0.000 HD
ENDBRANCH   3  13
BRANCH   2  15
ATOM     15  O   UNL     1      -4.100   8.921  13.239  0.00  0.00    +0.000 OA
ATOM     16  H   UNL     1      -3.851   9.862  13.334  0.00  0.00    +0.000 HD
ENDBRANCH   2  15
BRANCH   1  17
ATOM     17  C   UNL     1      -7.438   7.122  13.596  0.00  0.00    +0.000 C 
BRANCH  17  18
ATOM     18  O   UNL     1      -7.719   7.735  14.850  0.00  0.00    +0.000 OA
ATOM     19  H   UNL     1      -7.049   7.445  15.493  0.00  0.00    +0.000 HD
ENDBRANCH  17  18
ENDBRANCH   1  17
TORSDOF 7
ENDMDL
MODEL 3
REMARK VINA RESULT:    -4.667      2.584      4.115
REMARK INTER + INTRA:          -6.200
REMARK INTER:                  -5.921
REMARK INTRA:                  -0.279
REMARK UNBOUND:                -0.304
REMARK  Name = 
REMARK  7 active torsions:
REMARK  status: ('A' for Active; 'I' for Inactive)
REMARK    1  A    between atoms: C_1  and  C_2
REMARK    2  A    between atoms: C_1  and  O_14
REMARK    3  A    between atoms: C_3  and  O_13
REMARK    4  A    between atoms: C_4  and  O_12
REMARK    5  A    between atoms: C_5  and  O_11
REMARK    6  A    between atoms: C_6  and  C_8
REMARK    7  A    between atoms: C_8  and  O_10
REMARK                            x       y       z     vdW  Elec       q    Type
REMARK                         _______ _______ _______ _____ _____    ______ ____
ROOT
ATOM      1  C   UNL     1      -6.254   8.588   9.760  0.00  0.00    +0.000 C 
ATOM      2  C   UNL     1      -7.365   9.498  10.297  0.00  0.00    +0.000 C 
ATOM      3  C   UNL     1      -6.805  10.526  11.290  0.00  0.00    +0.000 C 
ATOM      4  C   UNL     1      -5.981   9.845  12.401  0.00  0.00    +0.000 C 
ATOM      5  C   UNL     1      -4.939   8.911  11.768  0.00  0.00    +0.000 C 
ATOM      6  O   UNL     1      -5.562   7.985  10.866  0.00  0.00    +0.000 OA
ENDROOT
BRANCH   5   7
ATOM      7  C   UNL     1      -4.236   8.140  12.876  0.00  0.00    +0.000 C 
ATOM      8  O   UNL     1      -4.661   7.166  13.481  0.00  0.00    +0.000 OA
BRANCH   7   9
ATOM      9  O   UNL     1      -3.013   8.640  13.164  0.00  0.00    +0.000 OA
ATOM     10  H   UNL     1      -2.400   7.901  12.977  0.00  0.00    +0.000 HD
ENDBRANCH   7   9
ENDBRANCH   5   7
BRANCH   4  11
ATOM     11  O   UNL     1      -5.364  10.830  13.237  0.00  0.00    +0.000 OA
ATOM     12  H   UNL     1      -4.429  10.926  12.987  0.00  0.00    +0.000 HD
ENDBRANCH   4  11
BRANCH   3  13
ATOM     13  O   UNL     1      -7.883  11.279  11.854  0.00  0.00    +0.000 OA
ATOM     14  H   UNL     1      -8.575  11.324  11.162  0.00  0.00    +0.000 HD
ENDBRANCH   3  13
BRANCH   2  15
ATOM     15  O   UNL     1      -8.355   8.709  10.986  0.00  0.00    +0.000 OA
ATOM     16  H   UNL     1      -8.755   8.096  10.337  0.00  0.00    +0.000 HD
ENDBRANCH   2  15
BRANCH   1  17
ATOM     17  C   UNL     1      -5.307   9.308   8.784  0.00  0.00    +0.000 C 
BRANCH  17  18
ATOM     18  O   UNL     1      -6.009  10.220   7.946  0.00  0.00    +0.000 OA
ATOM     19  H   UNL     1      -6.078  11.075   8.408  0.00  0.00    +0.000 HD
ENDBRANCH  17  18
ENDBRANCH   1  17
TORSDOF 7
ENDMDL
MODEL 4
REMARK VINA RESULT:    -4.583      1.739      2.772
REMARK INTER + INTRA:          -6.093
REMARK INTER:                  -5.784
REMARK INTRA:                  -0.309
REMARK UNBOUND:                -0.304
REMARK  Name = 
REMARK  7 active torsions:
REMARK  status: ('A' for Active; 'I' for Inactive)
REMARK    1  A    between atoms: C_1  and  C_2
REMARK    2  A    between atoms: C_1  and  O_14
REMARK    3  A    between atoms: C_3  and  O_13
REMARK    4  A    between atoms: C_4  and  O_12
REMARK    5  A    between atoms: C_5  and  O_11
REMARK    6  A    between atoms: C_6  and  C_8
REMARK    7  A    between atoms: C_8  and  O_10
REMARK                            x       y       z     vdW  Elec       q    Type
REMARK                         _______ _______ _______ _____ _____    ______ ____
ROOT
ATOM      1  C   UNL     1      -5.495   9.527  13.427  0.00  0.00    +0.000 C 
ATOM      2  C   UNL     1      -4.471   8.683  12.659  0.00  0.00    +0.000 C 
ATOM      3  C   UNL     1      -5.112   8.018  11.433  0.00  0.00    +0.000 C 
ATOM      4  C   UNL     1      -6.385   7.237  11.816  0.00  0.00    +0.000 C 
ATOM      5  C   UNL     1      -7.318   8.144  12.631  0.00  0.00    +0.000 C 
ATOM      6  O   UNL     1      -6.630   8.708  13.757  0.00  0.00    +0.000 OA
ENDROOT
BRANCH   5   7
ATOM      7  C   UNL     1      -8.496   7.317  13.124  0.00  0.00    +0.000 C 
ATOM      8  O   UNL     1      -8.561   6.668  14.158  0.00  0.00    +0.000 OA
BRANCH   7   9
ATOM      9  O   UNL     1      -9.550   7.356  12.277  0.00  0.00    +0.000 OA
ATOM     10  H   UNL     1     -10.152   6.660  12.610  0.00  0.00    +0.000 HD
ENDBRANCH   7   9
ENDBRANCH   5   7
BRANCH   4  11
ATOM     11  O   UNL     1      -7.033   6.736  10.642  0.00  0.00    +0.000 OA
ATOM     12  H   UNL     1      -7.865   7.220  10.502  0.00  0.00    +0.000 HD
ENDBRANCH   4  11
BRANCH   3  13
ATOM     13  O   UNL     1      -4.159   7.152  10.809  0.00  0.00    +0.000 OA
ATOM     14  H   UNL     1      -4.164   7.382   9.857  0.00  0.00    +0.000 HD
ENDBRANCH   3  13
BRANCH   2  15
ATOM     15  O   UNL     1      -3.957   7.641  13.511  0.00  0.00    +0.000 OA
ATOM     16  H   UNL     1      -3.663   6.903  12.939  0.00  0.00    +0.000 HD
ENDBRANCH   2  15
BRANCH   1  17
ATOM     17  C   UNL     1      -5.887  10.818  12.685  0.00  0.00    +0.000 C 
BRANCH  17  18
ATOM     18  O   UNL     1      -5.513  11.979  13.418  0.00  0.00    +0.000 OA
ATOM     19  H   UNL     1      -5.395  12.716  12.793  0.00  0.00    +0.000 HD
ENDBRANCH  17  18
ENDBRANCH   1  17
TORSDOF 7
ENDMDL
MODEL 5
REMARK VINA RESULT:    -4.567      1.898      4.749
REMARK INTER + INTRA:          -6.073
REMARK INTER:                  -5.753
REMARK INTRA:                  -0.320
REMARK UNBOUND:                -0.304
REMARK  Name = 
REMARK  7 active torsions:
REMARK  status: ('A' for Active; 'I' for Inactive)
REMARK    1  A    between atoms: C_1  and  C_2
REMARK    2  A    between atoms: C_1  and  O_14
REMARK    3  A    between atoms: C_3  and  O_13
REMARK    4  A    between atoms: C_4  and  O_12
REMARK    5  A    between atoms: C_5  and  O_11
REMARK    6  A    between atoms: C_6  and  C_8
REMARK    7  A    between atoms: C_8  and  O_10
REMARK                            x       y       z     vdW  Elec       q    Type
REMARK                         _______ _______ _______ _____ _____    ______ ____
ROOT
ATOM      1  C   UNL     1      -7.543   7.930  11.990  0.00  0.00    +0.000 C 
ATOM      2  C   UNL     1      -6.317   8.218  12.865  0.00  0.00    +0.000 C 
ATOM      3  C   UNL     1      -5.173   8.815  12.033  0.00  0.00    +0.000 C 
ATOM      4  C   UNL     1      -4.855   7.941  10.803  0.00  0.00    +0.000 C 
ATOM      5  C   UNL     1      -6.150   7.657  10.027  0.00  0.00    +0.000 C 
ATOM      6  O   UNL     1      -7.151   7.094  10.889  0.00  0.00    +0.000 OA
ENDROOT
BRANCH   5   7
ATOM      7  C   UNL     1      -5.842   6.677   8.905  0.00  0.00    +0.000 C 
ATOM      8  O   UNL     1      -5.978   5.461   8.928  0.00  0.00    +0.000 OA
BRANCH   7   9
ATOM      9  O   UNL     1      -5.376   7.289   7.792  0.00  0.00    +0.000 OA
ATOM     10  H   UNL     1      -4.537   7.702   8.078  0.00  0.00    +0.000 HD
ENDBRANCH   7   9
ENDBRANCH   5   7
BRANCH   4  11
ATOM     11  O   UNL     1      -3.877   8.582   9.977  0.00  0.00    +0.000 OA
ATOM     12  H   UNL     1      -3.007   8.178  10.134  0.00  0.00    +0.000 HD
ENDBRANCH   4  11
BRANCH   3  13
ATOM     13  O   UNL     1      -4.013   8.964  12.858  0.00  0.00    +0.000 OA
ATOM     14  H   UNL     1      -4.268   9.574  13.579  0.00  0.00    +0.000 HD
ENDBRANCH   3  13
BRANCH   2  15
ATOM     15  O   UNL     1      -5.841   6.995  13.461  0.00  0.00    +0.000 OA
ATOM     16  H   UNL     1      -5.607   6.380  12.737  0.00  0.00    +0.000 HD
ENDBRANCH   2  15
BRANCH   1  17
ATOM     17  C   UNL     1      -8.273   9.208  11.539  0.00  0.00    +0.000 C 
BRANCH  17  18
ATOM     18  O   UNL     1      -9.473   9.415  12.276  0.00  0.00    +0.000 OA
ATOM     19  H   UNL     1      -9.998   8.595  12.249  0.00  0.00    +0.000 HD
ENDBRANCH  17  18
ENDBRANCH   1  17
TORSDOF 7
ENDMDL
MODEL 6
REMARK VINA RESULT:    -4.461      2.991      5.683
REMARK INTER + INTRA:          -5.939
REMARK INTER:                  -5.598
REMARK INTRA:                  -0.342
REMARK UNBOUND:                -0.304
REMARK  Name = 
REMARK  7 active torsions:
REMARK  status: ('A' for Active; 'I' for Inactive)
REMARK    1  A    between atoms: C_1  and  C_2
REMARK    2  A    between atoms: C_1  and  O_14
REMARK    3  A    between atoms: C_3  and  O_13
REMARK    4  A    between atoms: C_4  and  O_12
REMARK    5  A    between atoms: C_5  and  O_11
REMARK    6  A    between atoms: C_6  and  C_8
REMARK    7  A    between atoms: C_8  and  O_10
REMARK                            x       y       z     vdW  Elec       q    Type
REMARK                         _______ _______ _______ _____ _____    ______ ____
ROOT
ATOM      1  C   UNL     1      -2.851   8.138  13.051  0.00  0.00    +0.000 C 
ATOM      2  C   UNL     1      -4.379   8.259  13.067  0.00  0.00    +0.000 C 
ATOM      3  C   UNL     1      -5.005   7.509  11.883  0.00  0.00    +0.000 C 
ATOM      4  C   UNL     1      -4.372   7.938  10.545  0.00  0.00    +0.000 C 
ATOM      5  C   UNL     1      -2.842   7.841  10.647  0.00  0.00    +0.000 C 
ATOM      6  O   UNL     1      -2.355   8.581  11.776  0.00  0.00    +0.000 OA
ENDROOT
BRANCH   5   7
ATOM      7  C   UNL     1      -2.231   8.405   9.373  0.00  0.00    +0.000 C 
ATOM      8  O   UNL     1      -2.811   9.002   8.477  0.00  0.00    +0.000 OA
BRANCH   7   9
ATOM      9  O   UNL     1      -0.898   8.190   9.295  0.00  0.00    +0.000 OA
ATOM     10  H   UNL     1      -0.583   8.858   8.654  0.00  0.00    +0.000 HD
ENDBRANCH   7   9
ENDBRANCH   5   7
BRANCH   4  11
ATOM     11  O   UNL     1      -4.879   7.135   9.474  0.00  0.00    +0.000 OA
ATOM     12  H   UNL     1      -5.693   6.688   9.763  0.00  0.00    +0.000 HD
ENDBRANCH   4  11
BRANCH   3  13
ATOM     13  O   UNL     1      -6.418   7.739  11.868  0.00  0.00    +0.000 OA
ATOM     14  H   UNL     1      -6.586   8.440  12.530  0.00  0.00    +0.000 HD
ENDBRANCH   3  13
BRANCH   2  15
ATOM     15  O   UNL     1      -4.762   9.645  12.966  0.00  0.00    +0.000 OA
ATOM     16  H   UNL     1      -5.110   9.924  13.837  0.00  0.00    +0.000 HD
ENDBRANCH   2  15
BRANCH   1  17
ATOM     17  C   UNL     1      -2.356   6.729  13.426  0.00  0.00    +0.000 C 
BRANCH  17  18
ATOM     18  O   UNL     1      -3.101   6.182  14.509  0.00  0.00    +0.000 OA
ATOM     19  H   UNL     1      -3.286   5.246  14.316  0.00  0.00    +0.000 HD
ENDBRANCH  17  18
ENDBRANCH   1  17
TORSDOF 7
ENDMDL
MODEL 7
REMARK VINA RESULT:    -4.449      2.425      5.402
REMARK INTER + INTRA:          -5.924
REMARK INTER:                  -5.573
REMARK INTRA:                  -0.352
REMARK UNBOUND:                -0.304
REMARK  Name = 
REMARK  7 active torsions:
REMARK  status: ('A' for Active; 'I' for Inactive)
REMARK    1  A    between atoms: C_1  and  C_2
REMARK    2  A    between atoms: C_1  and  O_14
REMARK    3  A    between atoms: C_3  and  O_13
REMARK    4  A    between atoms: C_4  and  O_12
REMARK    5  A    between atoms: C_5  and  O_11
REMARK    6  A    between atoms: C_6  and  C_8
REMARK    7  A    between atoms: C_8  and  O_10
REMARK                            x       y       z     vdW  Elec       q    Type
REMARK                         _______ _______ _______ _____ _____    ______ ____
ROOT
ATOM      1  C   UNL     1      -6.111   7.331  10.553  0.00  0.00    +0.000 C 
ATOM      2  C   UNL     1      -6.061   8.047  11.908  0.00  0.00    +0.000 C 
ATOM      3  C   UNL     1      -4.741   8.811  12.081  0.00  0.00    +0.000 C 
ATOM      4  C   UNL     1      -3.525   7.899  11.827  0.00  0.00    +0.000 C 
ATOM      5  C   UNL     1      -3.695   7.181  10.478  0.00  0.00    +0.000 C 
ATOM      6  O   UNL     1      -4.952   6.491  10.420  0.00  0.00    +0.000 OA
ENDROOT
BRANCH   5   7
ATOM      7  C   UNL     1      -2.562   6.179  10.312  0.00  0.00    +0.000 C 
ATOM      8  O   UNL     1      -1.363   6.394  10.427  0.00  0.00    +0.000 OA
BRANCH   7   9
ATOM      9  O   UNL     1      -3.005   4.937  10.011  0.00  0.00    +0.000 OA
ATOM     10  H   UNL     1      -3.858   4.865  10.484  0.00  0.00    +0.000 HD
ENDBRANCH   7   9
ENDBRANCH   5   7
BRANCH   4  11
ATOM     11  O   UNL     1      -2.314   8.661  11.866  0.00  0.00    +0.000 OA
ATOM     12  H   UNL     1      -1.620   8.142  12.306  0.00  0.00    +0.000 HD
ENDBRANCH   4  11
BRANCH   3  13
ATOM     13  O   UNL     1      -4.685   9.369  13.397  0.00  0.00    +0.000 OA
ATOM     14  H   UNL     1      -3.777   9.718  13.506  0.00  0.00    +0.000 HD
ENDBRANCH   3  13
BRANCH   2  15
ATOM     15  O   UNL     1      -6.160   7.083  12.975  0.00  0.00    +0.000 OA
ATOM     16  H   UNL     1      -5.322   6.579  13.003  0.00  0.00    +0.000 HD
ENDBRANCH   2  15
BRANCH   1  17
ATOM     17  C   UNL     1      -6.286   8.298   9.368  0.00  0.00    +0.000 C 
BRANCH  17  18
ATOM     18  O   UNL     1      -7.305   9.260   9.621  0.00  0.00    +0.000 OA
ATOM     19  H   UNL     1      -7.193   9.599  10.527  0.00  0.00    +0.000 HD
ENDBRANCH  17  18
ENDBRANCH   1  17
TORSDOF 7
ENDMDL
MODEL 8
REMARK VINA RESULT:    -4.406      1.358      3.311
REMARK INTER + INTRA:          -5.870
REMARK INTER:                  -5.566
REMARK INTRA:                  -0.304
REMARK UNBOUND:                -0.304
REMARK  Name = 
REMARK  7 active torsions:
REMARK  status: ('A' for Active; 'I' for Inactive)
REMARK    1  A    between atoms: C_1  and  C_2
REMARK    2  A    between atoms: C_1  and  O_14
REMARK    3  A    between atoms: C_3  and  O_13
REMARK    4  A    between atoms: C_4  and  O_12
REMARK    5  A    between atoms: C_5  and  O_11
REMARK    6  A    between atoms: C_6  and  C_8
REMARK    7  A    between atoms: C_8  and  O_10
REMARK                            x       y       z     vdW  Elec       q    Type
REMARK                         _______ _______ _______ _____ _____    ______ ____
ROOT
ATOM      1  C   UNL     1      -6.096   8.744  10.721  0.00  0.00    +0.000 C 
ATOM      2  C   UNL     1      -4.923   8.556  11.691  0.00  0.00    +0.000 C 
ATOM      3  C   UNL     1      -5.192   7.399  12.664  0.00  0.00    +0.000 C 
ATOM      4  C   UNL     1      -6.551   7.562  13.373  0.00  0.00    +0.000 C 
ATOM      5  C   UNL     1      -7.649   7.806  12.326  0.00  0.00    +0.000 C 
ATOM      6  O   UNL     1      -7.309   8.910  11.474  0.00  0.00    +0.000 OA
ENDROOT
BRANCH   5   7
ATOM      7  C   UNL     1      -8.953   8.109  13.049  0.00  0.00    +0.000 C 
ATOM      8  O   UNL     1      -9.346   7.622  14.100  0.00  0.00    +0.000 OA
BRANCH   7   9
ATOM      9  O   UNL     1      -9.705   9.030  12.402  0.00  0.00    +0.000 OA
ATOM     10  H   UNL     1      -9.390   9.887  12.753  0.00  0.00    +0.000 HD
ENDBRANCH   7   9
ENDBRANCH   5   7
BRANCH   4  11
ATOM     11  O   UNL     1      -6.836   6.410  14.174  0.00  0.00    +0.000 OA
ATOM     12  H   UNL     1      -6.041   6.163  14.677  0.00  0.00    +0.000 HD
ENDBRANCH   4  11
BRANCH   3  13
ATOM     13  O   UNL     1      -4.130   7.328  13.621  0.00  0.00    +0.000 OA
ATOM     14  H   UNL     1      -4.028   6.380  13.844  0.00  0.00    +0.000 HD
ENDBRANCH   3  13
BRANCH   2  15
ATOM     15  O   UNL     1      -4.733   9.754  12.468  0.00  0.00    +0.000 OA
ATOM     16  H   UNL     1      -4.041  10.290  12.030  0.00  0.00    +0.000 HD
ENDBRANCH   2  15
BRANCH   1  17
ATOM     17  C   UNL     1      -6.194   7.623   9.671  0.00  0.00    +0.000 C 
BRANCH  17  18
ATOM     18  O   UNL     1      -5.898   8.100   8.363  0.00  0.00    +0.000 OA
ATOM     19  H   UNL     1      -5.011   8.501   8.373  0.00  0.00    +0.000 HD
ENDBRANCH  17  18
ENDBRANCH   1  17
TORSDOF 7
ENDMDL
MODEL 9
REMARK VINA RESULT:    -4.358      1.579      4.253
REMARK INTER + INTRA:          -5.808
REMARK INTER:                  -5.483
REMARK INTRA:                  -0.325
REMARK UNBOUND:                -0.304
REMARK  Name = 
REMARK  7 active torsions:
REMARK  status: ('A' for Active; 'I' for Inactive)
REMARK    1  A    between atoms: C_1  and  C_2
REMARK    2  A    between atoms: C_1  and  O_14
REMARK    3  A    between atoms: C_3  and  O_13
REMARK    4  A    between atoms: C_4  and  O_12
REMARK    5  A    between atoms: C_5  and  O_11
REMARK    6  A    between atoms: C_6  and  C_8
REMARK    7  A    between atoms: C_8  and  O_10
REMARK                            x       y       z     vdW  Elec       q    Type
REMARK                         _______ _______ _______ _____ _____    ______ ____
ROOT
ATOM      1  C   UNL     1      -7.785   8.938  12.654  0.00  0.00    +0.000 C 
ATOM      2  C   UNL     1      -7.710   9.811  11.396  0.00  0.00    +0.000 C 
ATOM      3  C   UNL     1      -6.730   9.222  10.372  0.00  0.00    +0.000 C 
ATOM      4  C   UNL     1      -5.352   8.943  11.006  0.00  0.00    +0.000 C 
ATOM      5  C   UNL     1      -5.536   8.117  12.288  0.00  0.00    +0.000 C 
ATOM      6  O   UNL     1      -6.460   8.756  13.181  0.00  0.00    +0.000 OA
ENDROOT
BRANCH   5   7
ATOM      7  C   UNL     1      -4.185   7.977  12.976  0.00  0.00    +0.000 C 
ATOM      8  O   UNL     1      -3.840   7.098  13.753  0.00  0.00    +0.000 OA
BRANCH   7   9
ATOM      9  O   UNL     1      -3.324   8.965  12.639  0.00  0.00    +0.000 OA
ATOM     10  H   UNL     1      -2.499   8.495  12.404  0.00  0.00    +0.000 HD
ENDBRANCH   7   9
ENDBRANCH   5   7
BRANCH   4  11
ATOM     11  O   UNL     1      -4.499   8.276  10.069  0.00  0.00    +0.000 OA
ATOM     12  H   UNL     1      -4.931   8.254   9.198  0.00  0.00    +0.000 HD
ENDBRANCH   4  11
BRANCH   3  13
ATOM     13  O   UNL     1      -6.602  10.120   9.265  0.00  0.00    +0.000 OA
ATOM     14  H   UNL     1      -7.280   9.847   8.614  0.00  0.00    +0.000 HD
ENDBRANCH   3  13
BRANCH   2  15
ATOM     15  O   UNL     1      -7.249  11.132  11.743  0.00  0.00    +0.000 OA
ATOM     16  H   UNL     1      -8.033  11.680  11.945  0.00  0.00    +0.000 HD
ENDBRANCH   2  15
BRANCH   1  17
ATOM     17  C   UNL     1      -8.522   7.608  12.419  0.00  0.00    +0.000 C 
BRANCH  17  18
ATOM     18  O   UNL     1      -9.842   7.637  12.953  0.00  0.00    +0.000 OA
ATOM     19  H   UNL     1     -10.440   7.193  12.326  0.00  0.00    +0.000 HD
ENDBRANCH  17  18
ENDBRANCH   1  17
TORSDOF 7
ENDMDL
