REMARK  Name = 
REMARK  7 active torsions:
REMARK  status: ('A' for Active; 'I' for Inactive)
REMARK    1  A    between atoms: C_1  and  C_2
REMARK    2  A    between atoms: C_1  and  O_14
REMARK    3  A    between atoms: C_3  and  O_13
REMARK    4  A    between atoms: C_4  and  O_12
REMARK    5  A    between atoms: C_5  and  O_11
REMARK    6  A    between atoms: C_6  and  C_8
REMARK    7  A    between atoms: C_8  and  O_10
REMARK                            x       y       z     vdW  Elec       q    Type
REMARK                         _______ _______ _______ _____ _____    ______ ____
ROOT
ATOM      1  C   UNL     1       0.398   0.456  -1.240  0.00  0.00    +0.000 C 
ATOM      2  C   UNL     1       0.009   1.939  -1.219  0.00  0.00    +0.000 C 
ATOM      3  C   UNL     1      -1.183   2.184  -0.284  0.00  0.00    +0.000 C 
ATOM      4  C   UNL     1      -2.362   1.248  -0.616  0.00  0.00    +0.000 C 
ATOM      5  C   UNL     1      -1.863  -0.204  -0.674  0.00  0.00    +0.000 C 
ATOM      6  O   UNL     1      -0.757  -0.330  -1.580  0.00  0.00    +0.000 OA
ENDROOT
BRANCH   5   7
ATOM      7  C   UNL     1      -3.004  -1.094  -1.145  0.00  0.00    +0.000 C 
ATOM      8  O   UNL     1      -3.294  -1.373  -2.300  0.00  0.00    +0.000 OA
BRANCH   7   9
ATOM      9  O   UNL     1      -3.728  -1.599  -0.120  0.00  0.00    +0.000 OA
ATOM     10  H   UNL     1      -4.431  -2.121  -0.556  0.00  0.00    +0.000 HD
ENDBRANCH   7   9
ENDBRANCH   5   7
BRANCH   4  11
ATOM     11  O   UNL     1      -3.409   1.405   0.348  0.00  0.00    +0.000 OA
ATOM     12  H   UNL     1      -3.031   1.370   1.243  0.00  0.00    +0.000 HD
ENDBRANCH   4  11
BRANCH   3  13
ATOM     13  O   UNL     1      -1.587   3.554  -0.378  0.00  0.00    +0.000 OA
ATOM     14  H   UNL     1      -1.604   3.768  -1.333  0.00  0.00    +0.000 HD
ENDBRANCH   3  13
BRANCH   2  15
ATOM     15  O   UNL     1      -0.370   2.365  -2.543  0.00  0.00    +0.000 OA
ATOM     16  H   UNL     1      -0.787   1.604  -2.995  0.00  0.00    +0.000 HD
ENDBRANCH   2  15
BRANCH   1  17
ATOM     17  C   UNL     1       1.072  -0.007   0.064  0.00  0.00    +0.000 C 
BRANCH  17  18
ATOM     18  O   UNL     1       1.345  -1.404   0.047  0.00  0.00    +0.000 OA
ATOM     19  H   UNL     1       1.698  -1.640  -0.829  0.00  0.00    +0.000 HD
ENDBRANCH  17  18
ENDBRANCH   1  17
TORSDOF 7
