
     RDKit          3D

 26 26  0  0  0  0  0  0  0  0999 V2000
    2.2387   -1.5652   -0.1195 C   0  0  0  0  0  0  0  0  0  0  0  0
    1.0419   -0.6156   -0.2211 C   0  0  0  0  0  0  0  0  0  0  0  0
    1.3800    0.7759    0.3337 C   0  0  0  0  0  0  0  0  0  0  0  0
    0.1588    1.4074    1.0150 C   0  0  0  0  0  0  0  0  0  0  0  0
   -1.1259    1.0169    0.2806 C   0  0  0  0  0  0  0  0  0  0  0  0
   -1.2904   -0.5162    0.3130 C   0  0  0  0  0  0  0  0  0  0  0  0
   -0.0460   -1.2005    0.5178 O   0  0  0  0  0  0  0  0  0  0  0  0
   -2.0557   -0.9613   -0.9344 C   0  0  0  0  0  0  0  0  0  0  0  0
   -2.9810   -0.3526   -1.4520 O   0  0  0  0  0  0  0  0  0  0  0  0
   -1.6471   -2.1436   -1.4350 O   0  0  0  0  0  0  0  0  0  0  0  0
   -2.2293    1.6807    0.9193 O   0  0  0  0  0  0  0  0  0  0  0  0
    0.3087    2.8366    1.0250 O   0  0  0  0  0  0  0  0  0  0  0  0
    1.8072    1.6149   -0.7484 O   0  0  0  0  0  0  0  0  0  0  0  0
    1.8928   -2.8347   -0.6782 O   0  0  0  0  0  0  0  0  0  0  0  0
    2.5183   -1.7374    0.9250 H   0  0  0  0  0  0  0  0  0  0  0  0
    3.1057   -1.1769   -0.6618 H   0  0  0  0  0  0  0  0  0  0  0  0
    0.7491   -0.5608   -1.2783 H   0  0  0  0  0  0  0  0  0  0  0  0
    2.2091    0.7426    1.0496 H   0  0  0  0  0  0  0  0  0  0  0  0
    0.0968    1.0834    2.0614 H   0  0  0  0  0  0  0  0  0  0  0  0
   -1.0864    1.4060   -0.7449 H   0  0  0  0  0  0  0  0  0  0  0  0
   -1.9307   -0.8038    1.1560 H   0  0  0  0  0  0  0  0  0  0  0  0
   -2.2180   -2.3086   -2.2145 H   0  0  0  0  0  0  0  0  0  0  0  0
   -3.0104    1.5446    0.3463 H   0  0  0  0  0  0  0  0  0  0  0  0
   -0.5671    3.1764    1.3037 H   0  0  0  0  0  0  0  0  0  0  0  0
    1.6829    2.5307   -0.4161 H   0  0  0  0  0  0  0  0  0  0  0  0
    0.9980   -3.0387   -0.3421 H   0  0  0  0  0  0  0  0  0  0  0  0
  1  2  1  0
  2  3  1  0
  3  4  1  0
  4  5  1  0
  5  6  1  0
  6  7  1  0
  6  8  1  0
  8  9  2  0
  8 10  1  0
  5 11  1  0
  4 12  1  0
  3 13  1  0
  1 14  1  0
  7  2  1  0
  1 15  1  0
  1 16  1  0
  2 17  1  0
  3 18  1  0
  4 19  1  0
  5 20  1  0
  6 21  1  0
 10 22  1  0
 11 23  1  0
 12 24  1  0
 13 25  1  0
 14 26  1  0
M  END
$$$$
