REMARK  Name = 
REMARK  6 active torsions:
REMARK  status: ('A' for Active; 'I' for Inactive)
REMARK    1  A    between atoms: C_1  and  C_2
REMARK    2  A    between atoms: C_1  and  O_12
REMARK    3  A    between atoms: C_3  and  O_11
REMARK    4  A    between atoms: C_4  and  O_10
REMARK    5  A    between atoms: C_5  and  O_9
REMARK    6  A    between atoms: C_6  and  O_8
REMARK                            x       y       z     vdW  Elec       q    Type
REMARK                         _______ _______ _______ _____ _____    ______ ____
ROOT
ATOM      1  C   UNL     1       0.500  -0.100  -1.322  0.00  0.00    +0.000 C 
ATOM      2  C   UNL     1       0.911  -1.402  -2.035  0.00  0.00    +0.000 C 
ATOM      3  C   UNL     1       0.562  -1.324  -3.528  0.00  0.00    +0.000 C 
ATOM      4  C   UNL     1       1.066  -0.022  -4.158  0.00  0.00    +0.000 C 
ATOM      5  C   UNL     1       0.545   1.162  -3.332  0.00  0.00    +0.000 C 
ATOM      6  O   UNL     1       1.044   1.042  -1.999  0.00  0.00    +0.000 OA
ENDROOT
BRANCH   5   7
ATOM      7  O   UNL     1       1.023   2.383  -3.876  0.00  0.00    +0.000 OA
ATOM      8  H   UNL     1       1.899   2.200  -4.259  0.00  0.00    +0.000 HD
ENDBRANCH   5   7
BRANCH   4   9
ATOM      9  O   UNL     1       2.513  -0.021  -4.146  0.00  0.00    +0.000 OA
ATOM     10  H   UNL     1       2.787   0.343  -3.283  0.00  0.00    +0.000 HD
ENDBRANCH   4   9
BRANCH   3  11
ATOM     11  O   UNL     1       1.142  -2.453  -4.194  0.00  0.00    +0.000 OA
ATOM     12  H   UNL     1       2.065  -2.207  -4.417  0.00  0.00    +0.000 HD
ENDBRANCH   3  11
BRANCH   2  13
ATOM     13  O   UNL     1       0.254  -2.515  -1.416  0.00  0.00    +0.000 OA
ATOM     14  H   UNL     1      -0.041  -3.117  -2.129  0.00  0.00    +0.000 HD
ENDBRANCH   2  13
BRANCH   1  15
ATOM     15  C   UNL     1       0.982  -0.089   0.138  0.00  0.00    +0.000 C 
BRANCH  15  16
ATOM     16  O   UNL     1       0.412  -1.139   0.913  0.00  0.00    +0.000 OA
ATOM     17  H   UNL     1       0.426  -1.952   0.362  0.00  0.00    +0.000 HD
ENDBRANCH  15  16
ENDBRANCH   1  15
TORSDOF 6
