MODEL 1
REMARK VINA RESULT:    -4.350      0.000      0.000
REMARK INTER + INTRA:          -5.488
REMARK INTER:                  -5.282
REMARK INTRA:                  -0.206
REMARK UNBOUND:                -0.248
REMARK  Name = 
REMARK  6 active torsions:
REMARK  status: ('A' for Active; 'I' for Inactive)
REMARK    1  A    between atoms: C_1  and  C_2
REMARK    2  A    between atoms: C_1  and  O_12
REMARK    3  A    between atoms: C_3  and  O_11
REMARK    4  A    between atoms: C_4  and  O_10
REMARK    5  A    between atoms: C_5  and  O_9
REMARK    6  A    between atoms: C_6  and  O_8
REMARK                            x       y       z     vdW  Elec       q    Type
REMARK                         _______ _______ _______ _____ _____    ______ ____
ROOT
ATOM      1  C   UNL     1      -7.782   8.228  13.653  0.00  0.00    +0.000 C 
ATOM      2  C   UNL     1      -8.292   8.377  12.207  0.00  0.00    +0.000 C 
ATOM      3  C   UNL     1      -7.522   9.491  11.484  0.00  0.00    +0.000 C 
ATOM      4  C   UNL     1      -6.008   9.331  11.652  0.00  0.00    +0.000 C 
ATOM      5  C   UNL     1      -5.685   9.218  13.148  0.00  0.00    +0.000 C 
ATOM      6  O   UNL     1      -6.356   8.072  13.674  0.00  0.00    +0.000 OA
ENDROOT
BRANCH   5   7
ATOM      7  O   UNL     1      -4.289   9.038  13.333  0.00  0.00    +0.000 OA
ATOM      8  H   UNL     1      -4.173   8.544  14.164  0.00  0.00    +0.000 HD
ENDBRANCH   5   7
BRANCH   4   9
ATOM      9  O   UNL     1      -5.582   8.126  10.973  0.00  0.00    +0.000 OA
ATOM     10  H   UNL     1      -4.762   8.348  10.493  0.00  0.00    +0.000 HD
ENDBRANCH   4   9
BRANCH   3  11
ATOM     11  O   UNL     1      -7.871   9.461  10.094  0.00  0.00    +0.000 OA
ATOM     12  H   UNL     1      -7.149   9.918   9.611  0.00  0.00    +0.000 HD
ENDBRANCH   3  11
BRANCH   2  13
ATOM     13  O   UNL     1      -9.697   8.656  12.221  0.00  0.00    +0.000 OA
ATOM     14  H   UNL     1      -9.920   9.003  13.108  0.00  0.00    +0.000 HD
ENDBRANCH   2  13
BRANCH   1  15
ATOM     15  C   UNL     1      -8.425   7.016  14.347  0.00  0.00    +0.000 C 
BRANCH  15  16
ATOM     16  O   UNL     1      -9.840   7.129  14.452  0.00  0.00    +0.000 OA
ATOM     17  H   UNL     1     -10.058   8.087  14.469  0.00  0.00    +0.000 HD
ENDBRANCH  15  16
ENDBRANCH   1  15
TORSDOF 6
ENDMDL
MODEL 2
REMARK VINA RESULT:    -4.200      2.414      3.921
REMARK INTER + INTRA:          -5.308
REMARK INTER:                  -5.253
REMARK INTRA:                  -0.055
REMARK UNBOUND:                -0.248
REMARK  Name = 
REMARK  6 active torsions:
REMARK  status: ('A' for Active; 'I' for Inactive)
REMARK    1  A    between atoms: C_1  and  C_2
REMARK    2  A    between atoms: C_1  and  O_12
REMARK    3  A    between atoms: C_3  and  O_11
REMARK    4  A    between atoms: C_4  and  O_10
REMARK    5  A    between atoms: C_5  and  O_9
REMARK    6  A    between atoms: C_6  and  O_8
REMARK                            x       y       z     vdW  Elec       q    Type
REMARK                         _______ _______ _______ _____ _____    ______ ____
ROOT
ATOM      1  C   UNL     1      -4.718   8.849  11.895  0.00  0.00    +0.000 C 
ATOM      2  C   UNL     1      -5.873   9.748  12.374  0.00  0.00    +0.000 C 
ATOM      3  C   UNL     1      -6.696  10.241  11.176  0.00  0.00    +0.000 C 
ATOM      4  C   UNL     1      -7.080   9.089  10.243  0.00  0.00    +0.000 C 
ATOM      5  C   UNL     1      -5.810   8.321   9.854  0.00  0.00    +0.000 C 
ATOM      6  O   UNL     1      -5.209   7.804  11.043  0.00  0.00    +0.000 OA
ENDROOT
BRANCH   5   7
ATOM      7  O   UNL     1      -6.140   7.227   9.013  0.00  0.00    +0.000 OA
ATOM      8  H   UNL     1      -6.969   6.846   9.353  0.00  0.00    +0.000 HD
ENDBRANCH   5   7
BRANCH   4   9
ATOM      9  O   UNL     1      -7.989   8.202  10.937  0.00  0.00    +0.000 OA
ATOM     10  H   UNL     1      -7.504   7.370  11.095  0.00  0.00    +0.000 HD
ENDBRANCH   4   9
BRANCH   3  11
ATOM     11  O   UNL     1      -7.874  10.895  11.666  0.00  0.00    +0.000 OA
ATOM     12  H   UNL     1      -8.642  10.399  11.312  0.00  0.00    +0.000 HD
ENDBRANCH   3  11
BRANCH   2  13
ATOM     13  O   UNL     1      -5.344  10.853  13.118  0.00  0.00    +0.000 OA
ATOM     14  H   UNL     1      -4.377  10.873  12.967  0.00  0.00    +0.000 HD
ENDBRANCH   2  13
BRANCH   1  15
ATOM     15  C   UNL     1      -3.977   8.214  13.083  0.00  0.00    +0.000 C 
BRANCH  15  16
ATOM     16  O   UNL     1      -2.600   8.575  13.128  0.00  0.00    +0.000 OA
ATOM     17  H   UNL     1      -2.267   8.580  12.204  0.00  0.00    +0.000 HD
ENDBRANCH  15  16
ENDBRANCH   1  15
TORSDOF 6
ENDMDL
MODEL 3
REMARK VINA RESULT:    -4.148      1.409      3.645
REMARK INTER + INTRA:          -5.245
REMARK INTER:                  -4.997
REMARK INTRA:                  -0.249
REMARK UNBOUND:                -0.248
REMARK  Name = 
REMARK  6 active torsions:
REMARK  status: ('A' for Active; 'I' for Inactive)
REMARK    1  A    between atoms: C_1  and  C_2
REMARK    2  A    between atoms: C_1  and  O_12
REMARK    3  A    between atoms: C_3  and  O_11
REMARK    4  A    between atoms: C_4  and  O_10
REMARK    5  A    between atoms: C_5  and  O_9
REMARK    6  A    between atoms: C_6  and  O_8
REMARK                            x       y       z     vdW  Elec       q    Type
REMARK                         _______ _______ _______ _____ _____    ______ ____
ROOT
ATOM      1  C   UNL     1      -5.940   7.935  12.228  0.00  0.00    +0.000 C 
ATOM      2  C   UNL     1      -5.653   8.895  11.059  0.00  0.00    +0.000 C 
ATOM      3  C   UNL     1      -6.913   9.083  10.202  0.00  0.00    +0.000 C 
ATOM      4  C   UNL     1      -8.136   9.415  11.063  0.00  0.00    +0.000 C 
ATOM      5  C   UNL     1      -8.277   8.347  12.156  0.00  0.00    +0.000 C 
ATOM      6  O   UNL     1      -7.097   8.361  12.962  0.00  0.00    +0.000 OA
ENDROOT
BRANCH   5   7
ATOM      7  O   UNL     1      -9.386   8.647  12.990  0.00  0.00    +0.000 OA
ATOM      8  H   UNL     1      -9.964   7.863  12.986  0.00  0.00    +0.000 HD
ENDBRANCH   5   7
BRANCH   4   9
ATOM      9  O   UNL     1      -7.944  10.712  11.676  0.00  0.00    +0.000 OA
ATOM     10  H   UNL     1      -7.709  10.550  12.609  0.00  0.00    +0.000 HD
ENDBRANCH   4   9
BRANCH   3  11
ATOM     11  O   UNL     1      -6.673  10.134   9.257  0.00  0.00    +0.000 OA
ATOM     12  H   UNL     1      -5.929   9.840   8.690  0.00  0.00    +0.000 HD
ENDBRANCH   3  11
BRANCH   2  13
ATOM     13  O   UNL     1      -4.573   8.380  10.269  0.00  0.00    +0.000 OA
ATOM     14  H   UNL     1      -4.237   7.578  10.718  0.00  0.00    +0.000 HD
ENDBRANCH   2  13
BRANCH   1  15
ATOM     15  C   UNL     1      -4.743   7.855  13.189  0.00  0.00    +0.000 C 
BRANCH  15  16
ATOM     16  O   UNL     1      -3.838   8.944  13.033  0.00  0.00    +0.000 OA
ATOM     17  H   UNL     1      -4.368   9.732  12.782  0.00  0.00    +0.000 HD
ENDBRANCH  15  16
ENDBRANCH   1  15
TORSDOF 6
ENDMDL
MODEL 4
REMARK VINA RESULT:    -4.135      1.668      2.659
REMARK INTER + INTRA:          -5.230
REMARK INTER:                  -5.193
REMARK INTRA:                  -0.037
REMARK UNBOUND:                -0.248
REMARK  Name = 
REMARK  6 active torsions:
REMARK  status: ('A' for Active; 'I' for Inactive)
REMARK    1  A    between atoms: C_1  and  C_2
REMARK    2  A    between atoms: C_1  and  O_12
REMARK    3  A    between atoms: C_3  and  O_11
REMARK    4  A    between atoms: C_4  and  O_10
REMARK    5  A    between atoms: C_5  and  O_9
REMARK    6  A    between atoms: C_6  and  O_8
REMARK                            x       y       z     vdW  Elec       q    Type
REMARK                         _______ _______ _______ _____ _____    ______ ____
ROOT
ATOM      1  C   UNL     1      -7.321   8.470  11.775  0.00  0.00    +0.000 C 
ATOM      2  C   UNL     1      -6.307   7.396  11.338  0.00  0.00    +0.000 C 
ATOM      3  C   UNL     1      -4.921   8.023  11.135  0.00  0.00    +0.000 C 
ATOM      4  C   UNL     1      -4.513   8.888  12.332  0.00  0.00    +0.000 C 
ATOM      5  C   UNL     1      -5.626   9.908  12.609  0.00  0.00    +0.000 C 
ATOM      6  O   UNL     1      -6.829   9.198  12.909  0.00  0.00    +0.000 OA
ENDROOT
BRANCH   5   7
ATOM      7  O   UNL     1      -5.288  10.704  13.735  0.00  0.00    +0.000 OA
ATOM      8  H   UNL     1      -5.685  11.581  13.593  0.00  0.00    +0.000 HD
ENDBRANCH   5   7
BRANCH   4   9
ATOM      9  O   UNL     1      -4.336   8.038  13.490  0.00  0.00    +0.000 OA
ATOM     10  H   UNL     1      -4.029   8.612  14.217  0.00  0.00    +0.000 HD
ENDBRANCH   4   9
BRANCH   3  11
ATOM     11  O   UNL     1      -3.967   6.973  10.936  0.00  0.00    +0.000 OA
ATOM     12  H   UNL     1      -3.261   7.100  11.605  0.00  0.00    +0.000 HD
ENDBRANCH   3  11
BRANCH   2  13
ATOM     13  O   UNL     1      -6.763   6.770  10.132  0.00  0.00    +0.000 OA
ATOM     14  H   UNL     1      -6.828   5.809  10.305  0.00  0.00    +0.000 HD
ENDBRANCH   2  13
BRANCH   1  15
ATOM     15  C   UNL     1      -8.676   7.841  12.138  0.00  0.00    +0.000 C 
BRANCH  15  16
ATOM     16  O   UNL     1      -9.437   8.651  13.029  0.00  0.00    +0.000 OA
ATOM     17  H   UNL     1      -9.725   9.446  12.530  0.00  0.00    +0.000 HD
ENDBRANCH  15  16
ENDBRANCH   1  15
TORSDOF 6
ENDMDL
MODEL 5
REMARK VINA RESULT:    -4.099      2.859      4.550
REMARK INTER + INTRA:          -5.186
REMARK INTER:                  -4.938
REMARK INTRA:                  -0.248
REMARK UNBOUND:                -0.248
REMARK  Name = 
REMARK  6 active torsions:
REMARK  status: ('A' for Active; 'I' for Inactive)
REMARK    1  A    between atoms: C_1  and  C_2
REMARK    2  A    between atoms: C_1  and  O_12
REMARK    3  A    between atoms: C_3  and  O_11
REMARK    4  A    between atoms: C_4  and  O_10
REMARK    5  A    between atoms: C_5  and  O_9
REMARK    6  A    between atoms: C_6  and  O_8
REMARK                            x       y       z     vdW  Elec       q    Type
REMARK                         _______ _______ _______ _____ _____    ______ ____
ROOT
ATOM      1  C   UNL     1      -4.893   7.887  12.379  0.00  0.00    +0.000 C 
ATOM      2  C   UNL     1      -3.583   8.592  11.978  0.00  0.00    +0.000 C 
ATOM      3  C   UNL     1      -2.929   7.865  10.795  0.00  0.00    +0.000 C 
ATOM      4  C   UNL     1      -3.930   7.610   9.665  0.00  0.00    +0.000 C 
ATOM      5  C   UNL     1      -5.155   6.886  10.242  0.00  0.00    +0.000 C 
ATOM      6  O   UNL     1      -5.748   7.720  11.239  0.00  0.00    +0.000 OA
ENDROOT
BRANCH   5   7
ATOM      7  O   UNL     1      -6.115   6.664   9.221  0.00  0.00    +0.000 OA
ATOM      8  H   UNL     1      -6.754   7.397   9.267  0.00  0.00    +0.000 HD
ENDBRANCH   5   7
BRANCH   4   9
ATOM      9  O   UNL     1      -4.339   8.879   9.101  0.00  0.00    +0.000 OA
ATOM     10  H   UNL     1      -3.537   9.432   9.042  0.00  0.00    +0.000 HD
ENDBRANCH   4   9
BRANCH   3  11
ATOM     11  O   UNL     1      -1.835   8.660  10.317  0.00  0.00    +0.000 OA
ATOM     12  H   UNL     1      -1.874   9.514  10.798  0.00  0.00    +0.000 HD
ENDBRANCH   3  11
BRANCH   2  13
ATOM     13  O   UNL     1      -2.698   8.633  13.104  0.00  0.00    +0.000 OA
ATOM     14  H   UNL     1      -1.981   9.264  12.892  0.00  0.00    +0.000 HD
ENDBRANCH   2  13
BRANCH   1  15
ATOM     15  C   UNL     1      -5.648   8.685  13.455  0.00  0.00    +0.000 C 
BRANCH  15  16
ATOM     16  O   UNL     1      -5.273  10.058  13.484  0.00  0.00    +0.000 OA
ATOM     17  H   UNL     1      -4.425  10.143  12.995  0.00  0.00    +0.000 HD
ENDBRANCH  15  16
ENDBRANCH   1  15
TORSDOF 6
ENDMDL
MODEL 6
REMARK VINA RESULT:    -4.092      1.489      2.897
REMARK INTER + INTRA:          -5.178
REMARK INTER:                  -4.937
REMARK INTRA:                  -0.241
REMARK UNBOUND:                -0.248
REMARK  Name = 
REMARK  6 active torsions:
REMARK  status: ('A' for Active; 'I' for Inactive)
REMARK    1  A    between atoms: C_1  and  C_2
REMARK    2  A    between atoms: C_1  and  O_12
REMARK    3  A    between atoms: C_3  and  O_11
REMARK    4  A    between atoms: C_4  and  O_10
REMARK    5  A    between atoms: C_5  and  O_9
REMARK    6  A    between atoms: C_6  and  O_8
REMARK                            x       y       z     vdW  Elec       q    Type
REMARK                         _______ _______ _______ _____ _____    ______ ____
ROOT
ATOM      1  C   UNL     1      -7.862   7.530  12.232  0.00  0.00    +0.000 C 
ATOM      2  C   UNL     1      -6.926   8.476  13.007  0.00  0.00    +0.000 C 
ATOM      3  C   UNL     1      -5.459   8.154  12.686  0.00  0.00    +0.000 C 
ATOM      4  C   UNL     1      -5.220   8.056  11.176  0.00  0.00    +0.000 C 
ATOM      5  C   UNL     1      -6.224   7.060  10.579  0.00  0.00    +0.000 C 
ATOM      6  O   UNL     1      -7.546   7.539  10.832  0.00  0.00    +0.000 OA
ENDROOT
BRANCH   5   7
ATOM      7  O   UNL     1      -6.045   6.973   9.174  0.00  0.00    +0.000 OA
ATOM      8  H   UNL     1      -6.860   6.585   8.807  0.00  0.00    +0.000 HD
ENDBRANCH   5   7
BRANCH   4   9
ATOM      9  O   UNL     1      -5.420   9.360  10.582  0.00  0.00    +0.000 OA
ATOM     10  H   UNL     1      -6.381   9.529  10.590  0.00  0.00    +0.000 HD
ENDBRANCH   4   9
BRANCH   3  11
ATOM     11  O   UNL     1      -4.631   9.176  13.254  0.00  0.00    +0.000 OA
ATOM     12  H   UNL     1      -3.722   9.022  12.919  0.00  0.00    +0.000 HD
ENDBRANCH   3  11
BRANCH   2  13
ATOM     13  O   UNL     1      -7.178   8.354  14.412  0.00  0.00    +0.000 OA
ATOM     14  H   UNL     1      -7.061   9.240  14.811  0.00  0.00    +0.000 HD
ENDBRANCH   2  13
BRANCH   1  15
ATOM     15  C   UNL     1      -9.335   7.935  12.411  0.00  0.00    +0.000 C 
BRANCH  15  16
ATOM     16  O   UNL     1      -9.839   7.614  13.703  0.00  0.00    +0.000 OA
ATOM     17  H   UNL     1     -10.159   8.449  14.110  0.00  0.00    +0.000 HD
ENDBRANCH  15  16
ENDBRANCH   1  15
TORSDOF 6
ENDMDL
MODEL 7
REMARK VINA RESULT:    -4.063      1.977      3.933
REMARK INTER + INTRA:          -5.143
REMARK INTER:                  -4.906
REMARK INTRA:                  -0.237
REMARK UNBOUND:                -0.248
REMARK  Name = 
REMARK  6 active torsions:
REMARK  status: ('A' for Active; 'I' for Inactive)
REMARK    1  A    between atoms: C_1  and  C_2
REMARK    2  A    between atoms: C_1  and  O_12
REMARK    3  A    between atoms: C_3  and  O_11
REMARK    4  A    between atoms: C_4  and  O_10
REMARK    5  A    between atoms: C_5  and  O_9
REMARK    6  A    between atoms: C_6  and  O_8
REMARK                            x       y       z     vdW  Elec       q    Type
REMARK                         _______ _______ _______ _____ _____    ______ ____
ROOT
ATOM      1  C   UNL     1      -4.928   8.074  10.441  0.00  0.00    +0.000 C 
ATOM      2  C   UNL     1      -6.278   8.427  11.093  0.00  0.00    +0.000 C 
ATOM      3  C   UNL     1      -6.266   8.046  12.580  0.00  0.00    +0.000 C 
ATOM      4  C   UNL     1      -5.016   8.577  13.289  0.00  0.00    +0.000 C 
ATOM      5  C   UNL     1      -3.774   8.113  12.515  0.00  0.00    +0.000 C 
ATOM      6  O   UNL     1      -3.841   8.639  11.189  0.00  0.00    +0.000 OA
ENDROOT
BRANCH   5   7
ATOM      7  O   UNL     1      -2.599   8.618  13.133  0.00  0.00    +0.000 OA
ATOM      8  H   UNL     1      -2.055   9.013  12.429  0.00  0.00    +0.000 HD
ENDBRANCH   5   7
BRANCH   4   9
ATOM      9  O   UNL     1      -5.062  10.023  13.308  0.00  0.00    +0.000 OA
ATOM     10  H   UNL     1      -4.206  10.328  13.664  0.00  0.00    +0.000 HD
ENDBRANCH   4   9
BRANCH   3  11
ATOM     11  O   UNL     1      -7.446   8.574  13.198  0.00  0.00    +0.000 OA
ATOM     12  H   UNL     1      -8.148   7.896  13.095  0.00  0.00    +0.000 HD
ENDBRANCH   3  11
BRANCH   2  13
ATOM     13  O   UNL     1      -7.335   7.749  10.403  0.00  0.00    +0.000 OA
ATOM     14  H   UNL     1      -7.059   7.646   9.469  0.00  0.00    +0.000 HD
ENDBRANCH   2  13
BRANCH   1  15
ATOM     15  C   UNL     1      -4.857   8.590   8.994  0.00  0.00    +0.000 C 
BRANCH  15  16
ATOM     16  O   UNL     1      -5.688   7.850   8.106  0.00  0.00    +0.000 OA
ATOM     17  H   UNL     1      -5.155   7.100   7.761  0.00  0.00    +0.000 HD
ENDBRANCH  15  16
ENDBRANCH   1  15
TORSDOF 6
ENDMDL
MODEL 8
REMARK VINA RESULT:    -4.045      2.084      4.598
REMARK INTER + INTRA:          -5.121
REMARK INTER:                  -4.875
REMARK INTRA:                  -0.246
REMARK UNBOUND:                -0.248
REMARK  Name = 
REMARK  6 active torsions:
REMARK  status: ('A' for Active; 'I' for Inactive)
REMARK    1  A    between atoms: C_1  and  C_2
REMARK    2  A    between atoms: C_1  and  O_12
REMARK    3  A    between atoms: C_3  and  O_11
REMARK    4  A    between atoms: C_4  and  O_10
REMARK    5  A    between atoms: C_5  and  O_9
REMARK    6  A    between atoms: C_6  and  O_8
REMARK                            x       y       z     vdW  Elec       q    Type
REMARK                         _______ _______ _______ _____ _____    ______ ____
ROOT
ATOM      1  C   UNL     1      -4.590   8.217  10.959  0.00  0.00    +0.000 C 
ATOM      2  C   UNL     1      -4.552   8.621  12.444  0.00  0.00    +0.000 C 
ATOM      3  C   UNL     1      -5.330   9.927  12.661  0.00  0.00    +0.000 C 
ATOM      4  C   UNL     1      -6.716   9.872  12.012  0.00  0.00    +0.000 C 
ATOM      5  C   UNL     1      -6.558   9.476  10.538  0.00  0.00    +0.000 C 
ATOM      6  O   UNL     1      -5.941   8.189  10.475  0.00  0.00    +0.000 OA
ENDROOT
BRANCH   5   7
ATOM      7  O   UNL     1      -7.832   9.387   9.918  0.00  0.00    +0.000 OA
ATOM      8  H   UNL     1      -8.112   8.456   9.975  0.00  0.00    +0.000 HD
ENDBRANCH   5   7
BRANCH   4   9
ATOM      9  O   UNL     1      -7.518   8.880  12.696  0.00  0.00    +0.000 OA
ATOM     10  H   UNL     1      -7.055   8.669  13.529  0.00  0.00    +0.000 HD
ENDBRANCH   4   9
BRANCH   3  11
ATOM     11  O   UNL     1      -5.452  10.160  14.070  0.00  0.00    +0.000 OA
ATOM     12  H   UNL     1      -4.840   9.535  14.514  0.00  0.00    +0.000 HD
ENDBRANCH   3  11
BRANCH   2  13
ATOM     13  O   UNL     1      -3.190   8.764  12.867  0.00  0.00    +0.000 OA
ATOM     14  H   UNL     1      -2.627   8.718  12.068  0.00  0.00    +0.000 HD
ENDBRANCH   2  13
BRANCH   1  15
ATOM     15  C   UNL     1      -3.956   6.833  10.742  0.00  0.00    +0.000 C 
BRANCH  15  16
ATOM     16  O   UNL     1      -2.533   6.876  10.736  0.00  0.00    +0.000 OA
ATOM     17  H   UNL     1      -2.252   7.415  11.508  0.00  0.00    +0.000 HD
ENDBRANCH  15  16
ENDBRANCH   1  15
TORSDOF 6
ENDMDL
MODEL 9
REMARK VINA RESULT:    -3.921      3.693      5.859
REMARK INTER + INTRA:          -4.972
REMARK INTER:                  -4.724
REMARK INTRA:                  -0.248
REMARK UNBOUND:                -0.248
REMARK  Name = 
REMARK  6 active torsions:
REMARK  status: ('A' for Active; 'I' for Inactive)
REMARK    1  A    between atoms: C_1  and  C_2
REMARK    2  A    between atoms: C_1  and  O_12
REMARK    3  A    between atoms: C_3  and  O_11
REMARK    4  A    between atoms: C_4  and  O_10
REMARK    5  A    between atoms: C_5  and  O_9
REMARK    6  A    between atoms: C_6  and  O_8
REMARK                            x       y       z     vdW  Elec       q    Type
REMARK                         _______ _______ _______ _____ _____    ______ ____
ROOT
ATOM      1  C   UNL     1      -3.641   7.255  10.837  0.00  0.00    +0.000 C 
ATOM      2  C   UNL     1      -3.215   6.380   9.643  0.00  0.00    +0.000 C 
ATOM      3  C   UNL     1      -4.364   5.451   9.228  0.00  0.00    +0.000 C 
ATOM      4  C   UNL     1      -5.680   6.218   9.066  0.00  0.00    +0.000 C 
ATOM      5  C   UNL     1      -5.951   7.012  10.351  0.00  0.00    +0.000 C 
ATOM      6  O   UNL     1      -4.876   7.929  10.556  0.00  0.00    +0.000 OA
ENDROOT
BRANCH   5   7
ATOM      7  O   UNL     1      -7.151   7.759  10.218  0.00  0.00    +0.000 OA
ATOM      8  H   UNL     1      -7.591   7.448   9.407  0.00  0.00    +0.000 HD
ENDBRANCH   5   7
BRANCH   4   9
ATOM      9  O   UNL     1      -5.559   7.131   7.950  0.00  0.00    +0.000 OA
ATOM     10  H   UNL     1      -6.265   6.897   7.317  0.00  0.00    +0.000 HD
ENDBRANCH   4   9
BRANCH   3  11
ATOM     11  O   UNL     1      -4.011   4.808   7.996  0.00  0.00    +0.000 OA
ATOM     12  H   UNL     1      -3.184   4.309   8.164  0.00  0.00    +0.000 HD
ENDBRANCH   3  11
BRANCH   2  13
ATOM     13  O   UNL     1      -2.050   5.623   9.996  0.00  0.00    +0.000 OA
ATOM     14  H   UNL     1      -2.168   4.719   9.641  0.00  0.00    +0.000 HD
ENDBRANCH   2  13
BRANCH   1  15
ATOM     15  C   UNL     1      -2.566   8.304  11.170  0.00  0.00    +0.000 C 
BRANCH  15  16
ATOM     16  O   UNL     1      -1.689   8.557  10.077  0.00  0.00    +0.000 OA
ATOM     17  H   UNL     1      -2.185   8.366   9.251  0.00  0.00    +0.000 HD
ENDBRANCH  15  16
ENDBRANCH   1  15
TORSDOF 6
ENDMDL
