REMARK  Name = 
REMARK  12 active torsions:
REMARK  status: ('A' for Active; 'I' for Inactive)
REMARK    1  A    between atoms: C_1  and  C_2
REMARK    2  A    between atoms: C_1  and  O_23
REMARK    3  A    between atoms: C_3  and  O_22
REMARK    4  A    between atoms: C_4  and  O_21
REMARK    5  A    between atoms: C_5  and  O_20
REMARK    6  A    between atoms: C_6  and  O_8
REMARK    7  A    between atoms: O_8  and  C_9
REMARK    8  A    between atoms: C_10  and  O_19
REMARK    9  A    between atoms: C_11  and  O_18
REMARK   10  A    between atoms: C_12  and  O_17
REMARK   11  A    between atoms: C_13  and  C_15
REMARK   12  A    between atoms: C_15  and  O_16
REMARK                            x       y       z     vdW  Elec       q    Type
REMARK                         _______ _______ _______ _____ _____    ______ ____
ROOT
ATOM      1  O   UNL     1       0.285   2.453   0.611  0.00  0.00    +0.000 OA
ENDROOT
BRANCH   1   6
ATOM      2  C   UNL     1      -2.517   2.203  -0.882  0.00  0.00    +0.000 C 
ATOM      3  C   UNL     1      -2.453   0.758  -1.401  0.00  0.00    +0.000 C 
ATOM      4  C   UNL     1      -1.203   0.070  -0.835  0.00  0.00    +0.000 C 
ATOM      5  C   UNL     1       0.054   0.859  -1.221  0.00  0.00    +0.000 C 
ATOM      6  C   UNL     1      -0.056   2.339  -0.768  0.00  0.00    +0.000 C 
ATOM      7  O   UNL     1      -1.309   2.934  -1.126  0.00  0.00    +0.000 OA
BRANCH   5   8
ATOM      8  O   UNL     1       0.180   0.753  -2.660  0.00  0.00    +0.000 OA
ATOM      9  H   UNL     1       0.942   1.312  -2.926  0.00  0.00    +0.000 HD
ENDBRANCH   5   8
BRANCH   4  10
ATOM     10  O   UNL     1      -1.107  -1.272  -1.324  0.00  0.00    +0.000 OA
ATOM     11  H   UNL     1      -0.831  -1.203  -2.259  0.00  0.00    +0.000 HD
ENDBRANCH   4  10
BRANCH   3  12
ATOM     12  O   UNL     1      -2.451   0.759  -2.839  0.00  0.00    +0.000 OA
ATOM     13  H   UNL     1      -1.517   0.796  -3.137  0.00  0.00    +0.000 HD
ENDBRANCH   3  12
BRANCH   2  14
ATOM     14  C   UNL     1      -2.955   2.252   0.592  0.00  0.00    +0.000 C 
BRANCH  14  15
ATOM     15  O   UNL     1      -3.123   3.597   1.060  0.00  0.00    +0.000 OA
ATOM     16  H   UNL     1      -3.605   4.091   0.371  0.00  0.00    +0.000 HD
ENDBRANCH  14  15
ENDBRANCH   2  14
ENDBRANCH   1   6
BRANCH   1  17
ATOM     17  C   UNL     1       0.204   3.792   1.108  0.00  0.00    +0.000 C 
ATOM     18  C   UNL     1       0.504   3.801   2.629  0.00  0.00    +0.000 C 
ATOM     19  C   UNL     1       2.014   3.744   2.883  0.00  0.00    +0.000 C 
ATOM     20  C   UNL     1       2.725   4.880   2.132  0.00  0.00    +0.000 C 
ATOM     21  C   UNL     1       2.395   4.742   0.635  0.00  0.00    +0.000 C 
ATOM     22  O   UNL     1       0.987   4.743   0.388  0.00  0.00    +0.000 OA
BRANCH  20  23
ATOM     23  O   UNL     1       2.339   6.180   2.613  0.00  0.00    +0.000 OA
ATOM     24  H   UNL     1       1.530   6.064   3.153  0.00  0.00    +0.000 HD
ENDBRANCH  20  23
BRANCH  19  25
ATOM     25  O   UNL     1       2.275   3.839   4.289  0.00  0.00    +0.000 OA
ATOM     26  H   UNL     1       1.575   4.412   4.662  0.00  0.00    +0.000 HD
ENDBRANCH  19  25
BRANCH  18  27
ATOM     27  O   UNL     1       0.025   5.007   3.272  0.00  0.00    +0.000 OA
ATOM     28  H   UNL     1      -0.792   5.279   2.811  0.00  0.00    +0.000 HD
ENDBRANCH  18  27
BRANCH  21  29
ATOM     29  C   UNL     1       3.000   5.885  -0.193  0.00  0.00    +0.000 C 
BRANCH  29  30
ATOM     30  O   UNL     1       4.414   5.923  -0.080  0.00  0.00    +0.000 OA
ATOM     31  H   UNL     1       4.612   6.420   0.737  0.00  0.00    +0.000 HD
ENDBRANCH  29  30
ENDBRANCH  21  29
ENDBRANCH   1  17
TORSDOF 12
