MODEL 1
REMARK VINA RESULT:    -5.697      0.000      0.000
REMARK INTER + INTRA:          -9.136
REMARK INTER:                  -8.102
REMARK INTRA:                  -1.034
REMARK UNBOUND:                -0.775
REMARK  Name = 
REMARK  12 active torsions:
REMARK  status: ('A' for Active; 'I' for Inactive)
REMARK    1  A    between atoms: C_1  and  C_2
REMARK    2  A    between atoms: C_1  and  O_23
REMARK    3  A    between atoms: C_3  and  O_22
REMARK    4  A    between atoms: C_4  and  O_21
REMARK    5  A    between atoms: C_5  and  O_20
REMARK    6  A    between atoms: C_6  and  O_8
REMARK    7  A    between atoms: O_8  and  C_9
REMARK    8  A    between atoms: C_10  and  O_19
REMARK    9  A    between atoms: C_11  and  O_18
REMARK   10  A    between atoms: C_12  and  O_17
REMARK   11  A    between atoms: C_13  and  C_15
REMARK   12  A    between atoms: C_15  and  O_16
REMARK                            x       y       z     vdW  Elec       q    Type
REMARK                         _______ _______ _______ _____ _____    ______ ____
ROOT
ATOM      1  O   UNL     1      -4.789   8.046  10.034  0.00  0.00    +0.000 OA
ENDROOT
BRANCH   1   6
ATOM      2  C   UNL     1      -3.317   8.059   7.210  0.00  0.00    +0.000 C 
ATOM      3  C   UNL     1      -2.861   6.595   7.103  0.00  0.00    +0.000 C 
ATOM      4  C   UNL     1      -3.453   5.792   8.269  0.00  0.00    +0.000 C 
ATOM      5  C   UNL     1      -3.029   6.413   9.606  0.00  0.00    +0.000 C 
ATOM      6  C   UNL     1      -3.417   7.914   9.671  0.00  0.00    +0.000 C 
ATOM      7  O   UNL     1      -3.037   8.634   8.493  0.00  0.00    +0.000 OA
BRANCH   5   8
ATOM      8  O   UNL     1      -1.596   6.231   9.707  0.00  0.00    +0.000 OA
ATOM      9  H   UNL     1      -1.243   6.990  10.221  0.00  0.00    +0.000 HD
ENDBRANCH   5   8
BRANCH   4  10
ATOM     10  O   UNL     1      -3.023   4.428   8.205  0.00  0.00    +0.000 OA
ATOM     11  H   UNL     1      -2.063   4.435   8.390  0.00  0.00    +0.000 HD
ENDBRANCH   4  10
BRANCH   3  12
ATOM     12  O   UNL     1      -1.424   6.534   7.093  0.00  0.00    +0.000 OA
ATOM     13  H   UNL     1      -1.166   5.612   6.878  0.00  0.00    +0.000 HD
ENDBRANCH   3  12
BRANCH   2  14
ATOM     14  C   UNL     1      -4.789   8.222   6.793  0.00  0.00    +0.000 C 
BRANCH  14  15
ATOM     15  O   UNL     1      -5.368   9.423   7.318  0.00  0.00    +0.000 OA
ATOM     16  H   UNL     1      -4.813  10.170   7.027  0.00  0.00    +0.000 HD
ENDBRANCH  14  15
ENDBRANCH   2  14
ENDBRANCH   1   6
BRANCH   1  17
ATOM     17  C   UNL     1      -5.095   7.486  11.314  0.00  0.00    +0.000 C 
ATOM     18  C   UNL     1      -4.592   8.436  12.432  0.00  0.00    +0.000 C 
ATOM     19  C   UNL     1      -5.577   9.590  12.644  0.00  0.00    +0.000 C 
ATOM     20  C   UNL     1      -6.987   9.045  12.920  0.00  0.00    +0.000 C 
ATOM     21  C   UNL     1      -7.397   8.160  11.730  0.00  0.00    +0.000 C 
ATOM     22  O   UNL     1      -6.460   7.108  11.488  0.00  0.00    +0.000 OA
BRANCH  20  23
ATOM     23  O   UNL     1      -7.054   8.298  14.148  0.00  0.00    +0.000 OA
ATOM     24  H   UNL     1      -6.761   7.384  13.951  0.00  0.00    +0.000 HD
ENDBRANCH  20  23
BRANCH  19  25
ATOM     25  O   UNL     1      -5.139  10.409  13.736  0.00  0.00    +0.000 OA
ATOM     26  H   UNL     1      -4.322  10.856  13.436  0.00  0.00    +0.000 HD
ENDBRANCH  19  25
BRANCH  18  27
ATOM     27  O   UNL     1      -4.469   7.761  13.707  0.00  0.00    +0.000 OA
ATOM     28  H   UNL     1      -3.525   7.549  13.835  0.00  0.00    +0.000 HD
ENDBRANCH  18  27
BRANCH  21  29
ATOM     29  C   UNL     1      -8.768   7.503  11.950  0.00  0.00    +0.000 C 
BRANCH  29  30
ATOM     30  O   UNL     1      -9.629   8.329  12.717  0.00  0.00    +0.000 OA
ATOM     31  H   UNL     1     -10.493   8.323  12.264  0.00  0.00    +0.000 HD
ENDBRANCH  29  30
ENDBRANCH  21  29
ENDBRANCH   1  17
TORSDOF 12
ENDMDL
MODEL 2
REMARK VINA RESULT:    -5.596      1.286      2.308
REMARK INTER + INTRA:          -8.988
REMARK INTER:                  -8.154
REMARK INTRA:                  -0.834
REMARK UNBOUND:                -0.775
REMARK  Name = 
REMARK  12 active torsions:
REMARK  status: ('A' for Active; 'I' for Inactive)
REMARK    1  A    between atoms: C_1  and  C_2
REMARK    2  A    between atoms: C_1  and  O_23
REMARK    3  A    between atoms: C_3  and  O_22
REMARK    4  A    between atoms: C_4  and  O_21
REMARK    5  A    between atoms: C_5  and  O_20
REMARK    6  A    between atoms: C_6  and  O_8
REMARK    7  A    between atoms: O_8  and  C_9
REMARK    8  A    between atoms: C_10  and  O_19
REMARK    9  A    between atoms: C_11  and  O_18
REMARK   10  A    between atoms: C_12  and  O_17
REMARK   11  A    between atoms: C_13  and  C_15
REMARK   12  A    between atoms: C_15  and  O_16
REMARK                            x       y       z     vdW  Elec       q    Type
REMARK                         _______ _______ _______ _____ _____    ______ ____
ROOT
ATOM      1  O   UNL     1      -5.115   7.701   9.837  0.00  0.00    +0.000 OA
ENDROOT
BRANCH   1   6
ATOM      2  C   UNL     1      -2.342   6.359   9.027  0.00  0.00    +0.000 C 
ATOM      3  C   UNL     1      -2.298   6.648   7.518  0.00  0.00    +0.000 C 
ATOM      4  C   UNL     1      -3.470   7.565   7.143  0.00  0.00    +0.000 C 
ATOM      5  C   UNL     1      -4.799   6.917   7.549  0.00  0.00    +0.000 C 
ATOM      6  C   UNL     1      -4.802   6.550   9.057  0.00  0.00    +0.000 C 
ATOM      7  O   UNL     1      -3.614   5.859   9.459  0.00  0.00    +0.000 OA
BRANCH   5   8
ATOM      8  O   UNL     1      -4.954   5.741   6.718  0.00  0.00    +0.000 OA
ATOM      9  H   UNL     1      -5.746   5.886   6.155  0.00  0.00    +0.000 HD
ENDBRANCH   5   8
BRANCH   4  10
ATOM     10  O   UNL     1      -3.466   7.830   5.736  0.00  0.00    +0.000 OA
ATOM     11  H   UNL     1      -4.404   7.895   5.467  0.00  0.00    +0.000 HD
ENDBRANCH   4  10
BRANCH   3  12
ATOM     12  O   UNL     1      -2.339   5.411   6.787  0.00  0.00    +0.000 OA
ATOM     13  H   UNL     1      -2.713   4.724   7.380  0.00  0.00    +0.000 HD
ENDBRANCH   3  12
BRANCH   2  14
ATOM     14  C   UNL     1      -1.871   7.573   9.846  0.00  0.00    +0.000 C 
BRANCH  14  15
ATOM     15  O   UNL     1      -0.626   8.097   9.365  0.00  0.00    +0.000 OA
ATOM     16  H   UNL     1      -0.391   8.861   9.924  0.00  0.00    +0.000 HD
ENDBRANCH  14  15
ENDBRANCH   2  14
ENDBRANCH   1   6
BRANCH   1  17
ATOM     17  C   UNL     1      -5.232   7.425  11.236  0.00  0.00    +0.000 C 
ATOM     18  C   UNL     1      -4.716   8.639  12.051  0.00  0.00    +0.000 C 
ATOM     19  C   UNL     1      -5.785   9.734  12.126  0.00  0.00    +0.000 C 
ATOM     20  C   UNL     1      -7.098   9.162  12.681  0.00  0.00    +0.000 C 
ATOM     21  C   UNL     1      -7.536   8.002  11.770  0.00  0.00    +0.000 C 
ATOM     22  O   UNL     1      -6.528   6.995  11.651  0.00  0.00    +0.000 OA
BRANCH  20  23
ATOM     23  O   UNL     1      -6.966   8.710  14.041  0.00  0.00    +0.000 OA
ATOM     24  H   UNL     1      -7.731   8.128  14.232  0.00  0.00    +0.000 HD
ENDBRANCH  20  23
BRANCH  19  25
ATOM     25  O   UNL     1      -5.323  10.810  12.952  0.00  0.00    +0.000 OA
ATOM     26  H   UNL     1      -6.000  11.514  12.894  0.00  0.00    +0.000 HD
ENDBRANCH  19  25
BRANCH  18  27
ATOM     27  O   UNL     1      -4.398   8.282  13.418  0.00  0.00    +0.000 OA
ATOM     28  H   UNL     1      -3.442   8.085  13.454  0.00  0.00    +0.000 HD
ENDBRANCH  18  27
BRANCH  21  29
ATOM     29  C   UNL     1      -8.805   7.311  12.292  0.00  0.00    +0.000 C 
BRANCH  29  30
ATOM     30  O   UNL     1      -9.678   8.230  12.930  0.00  0.00    +0.000 OA
ATOM     31  H   UNL     1     -10.140   8.711  12.217  0.00  0.00    +0.000 HD
ENDBRANCH  29  30
ENDBRANCH  21  29
ENDBRANCH   1  17
TORSDOF 12
ENDMDL
MODEL 3
REMARK VINA RESULT:    -5.547      1.625      6.469
REMARK INTER + INTRA:          -8.916
REMARK INTER:                  -8.153
REMARK INTRA:                  -0.763
REMARK UNBOUND:                -0.775
REMARK  Name = 
REMARK  12 active torsions:
REMARK  status: ('A' for Active; 'I' for Inactive)
REMARK    1  A    between atoms: C_1  and  C_2
REMARK    2  A    between atoms: C_1  and  O_23
REMARK    3  A    between atoms: C_3  and  O_22
REMARK    4  A    between atoms: C_4  and  O_21
REMARK    5  A    between atoms: C_5  and  O_20
REMARK    6  A    between atoms: C_6  and  O_8
REMARK    7  A    between atoms: O_8  and  C_9
REMARK    8  A    between atoms: C_10  and  O_19
REMARK    9  A    between atoms: C_11  and  O_18
REMARK   10  A    between atoms: C_12  and  O_17
REMARK   11  A    between atoms: C_13  and  C_15
REMARK   12  A    between atoms: C_15  and  O_16
REMARK                            x       y       z     vdW  Elec       q    Type
REMARK                         _______ _______ _______ _____ _____    ______ ____
ROOT
ATOM      1  O   UNL     1      -3.719   8.589   9.567  0.00  0.00    +0.000 OA
ENDROOT
BRANCH   1   6
ATOM      2  C   UNL     1      -6.036   7.172  11.232  0.00  0.00    +0.000 C 
ATOM      3  C   UNL     1      -5.987   7.963  12.548  0.00  0.00    +0.000 C 
ATOM      4  C   UNL     1      -5.010   9.138  12.399  0.00  0.00    +0.000 C 
ATOM      5  C   UNL     1      -3.621   8.622  12.004  0.00  0.00    +0.000 C 
ATOM      6  C   UNL     1      -3.693   7.753  10.721  0.00  0.00    +0.000 C 
ATOM      7  O   UNL     1      -4.737   6.774  10.775  0.00  0.00    +0.000 OA
BRANCH   5   8
ATOM      8  O   UNL     1      -3.129   7.860  13.134  0.00  0.00    +0.000 OA
ATOM      9  H   UNL     1      -3.356   6.919  12.969  0.00  0.00    +0.000 HD
ENDBRANCH   5   8
BRANCH   4  10
ATOM     10  O   UNL     1      -4.928   9.877  13.622  0.00  0.00    +0.000 OA
ATOM     11  H   UNL     1      -4.393   9.334  14.234  0.00  0.00    +0.000 HD
ENDBRANCH   4  10
BRANCH   3  12
ATOM     12  O   UNL     1      -5.603   7.090  13.624  0.00  0.00    +0.000 OA
ATOM     13  H   UNL     1      -5.838   6.173  13.365  0.00  0.00    +0.000 HD
ENDBRANCH   3  12
BRANCH   2  14
ATOM     14  C   UNL     1      -6.841   7.921  10.156  0.00  0.00    +0.000 C 
BRANCH  14  15
ATOM     15  O   UNL     1      -7.948   8.641  10.715  0.00  0.00    +0.000 OA
ATOM     16  H   UNL     1      -8.469   8.013  11.248  0.00  0.00    +0.000 HD
ENDBRANCH  14  15
ENDBRANCH   2  14
ENDBRANCH   1   6
BRANCH   1  17
ATOM     17  C   UNL     1      -2.482   8.607   8.849  0.00  0.00    +0.000 C 
ATOM     18  C   UNL     1      -1.996   7.154   8.615  0.00  0.00    +0.000 C 
ATOM     19  C   UNL     1      -2.733   6.521   7.431  0.00  0.00    +0.000 C 
ATOM     20  C   UNL     1      -2.591   7.402   6.180  0.00  0.00    +0.000 C 
ATOM     21  C   UNL     1      -3.146   8.798   6.514  0.00  0.00    +0.000 C 
ATOM     22  O   UNL     1      -2.501   9.380   7.650  0.00  0.00    +0.000 OA
BRANCH  20  23
ATOM     23  O   UNL     1      -1.227   7.498   5.731  0.00  0.00    +0.000 OA
ATOM     24  H   UNL     1      -1.115   6.860   4.997  0.00  0.00    +0.000 HD
ENDBRANCH  20  23
BRANCH  19  25
ATOM     25  O   UNL     1      -2.211   5.210   7.177  0.00  0.00    +0.000 OA
ATOM     26  H   UNL     1      -2.268   5.072   6.210  0.00  0.00    +0.000 HD
ENDBRANCH  19  25
BRANCH  18  27
ATOM     27  O   UNL     1      -0.584   7.096   8.298  0.00  0.00    +0.000 OA
ATOM     28  H   UNL     1      -0.429   7.697   7.544  0.00  0.00    +0.000 HD
ENDBRANCH  18  27
BRANCH  21  29
ATOM     29  C   UNL     1      -2.975   9.778   5.345  0.00  0.00    +0.000 C 
BRANCH  29  30
ATOM     30  O   UNL     1      -1.612  10.115   5.139  0.00  0.00    +0.000 OA
ATOM     31  H   UNL     1      -1.301   9.564   4.394  0.00  0.00    +0.000 HD
ENDBRANCH  29  30
ENDBRANCH  21  29
ENDBRANCH   1  17
TORSDOF 12
ENDMDL
MODEL 4
REMARK VINA RESULT:    -5.439      1.598      3.289
REMARK INTER + INTRA:          -8.757
REMARK INTER:                  -8.073
REMARK INTRA:                  -0.684
REMARK UNBOUND:                -0.775
REMARK  Name = 
REMARK  12 active torsions:
REMARK  status: ('A' for Active; 'I' for Inactive)
REMARK    1  A    between atoms: C_1  and  C_2
REMARK    2  A    between atoms: C_1  and  O_23
REMARK    3  A    between atoms: C_3  and  O_22
REMARK    4  A    between atoms: C_4  and  O_21
REMARK    5  A    between atoms: C_5  and  O_20
REMARK    6  A    between atoms: C_6  and  O_8
REMARK    7  A    between atoms: O_8  and  C_9
REMARK    8  A    between atoms: C_10  and  O_19
REMARK    9  A    between atoms: C_11  and  O_18
REMARK   10  A    between atoms: C_12  and  O_17
REMARK   11  A    between atoms: C_13  and  C_15
REMARK   12  A    between atoms: C_15  and  O_16
REMARK                            x       y       z     vdW  Elec       q    Type
REMARK                         _______ _______ _______ _____ _____    ______ ____
ROOT
ATOM      1  O   UNL     1      -5.923   7.924   8.950  0.00  0.00    +0.000 OA
ENDROOT
BRANCH   1   6
ATOM      2  C   UNL     1      -3.993   6.128   7.164  0.00  0.00    +0.000 C 
ATOM      3  C   UNL     1      -2.628   6.771   7.456  0.00  0.00    +0.000 C 
ATOM      4  C   UNL     1      -2.789   7.822   8.563  0.00  0.00    +0.000 C 
ATOM      5  C   UNL     1      -3.825   8.873   8.146  0.00  0.00    +0.000 C 
ATOM      6  C   UNL     1      -5.175   8.207   7.771  0.00  0.00    +0.000 C 
ATOM      7  O   UNL     1      -5.013   7.094   6.883  0.00  0.00    +0.000 OA
BRANCH   5   8
ATOM      8  O   UNL     1      -3.256   9.588   7.023  0.00  0.00    +0.000 OA
ATOM      9  H   UNL     1      -2.519   9.041   6.674  0.00  0.00    +0.000 HD
ENDBRANCH   5   8
BRANCH   4  10
ATOM     10  O   UNL     1      -1.534   8.455   8.837  0.00  0.00    +0.000 OA
ATOM     11  H   UNL     1      -1.710   9.121   9.531  0.00  0.00    +0.000 HD
ENDBRANCH   4  10
BRANCH   3  12
ATOM     12  O   UNL     1      -2.097   7.349   6.251  0.00  0.00    +0.000 OA
ATOM     13  H   UNL     1      -1.410   6.740   5.905  0.00  0.00    +0.000 HD
ENDBRANCH   3  12
BRANCH   2  14
ATOM     14  C   UNL     1      -4.397   5.140   8.272  0.00  0.00    +0.000 C 
BRANCH  14  15
ATOM     15  O   UNL     1      -5.811   4.900   8.291  0.00  0.00    +0.000 OA
ATOM     16  H   UNL     1      -6.251   5.704   7.958  0.00  0.00    +0.000 HD
ENDBRANCH  14  15
ENDBRANCH   2  14
ENDBRANCH   1   6
BRANCH   1  17
ATOM     17  C   UNL     1      -5.787   8.924   9.964  0.00  0.00    +0.000 C 
ATOM     18  C   UNL     1      -7.189   9.332  10.483  0.00  0.00    +0.000 C 
ATOM     19  C   UNL     1      -7.712   8.307  11.494  0.00  0.00    +0.000 C 
ATOM     20  C   UNL     1      -6.695   8.109  12.628  0.00  0.00    +0.000 C 
ATOM     21  C   UNL     1      -5.363   7.660  12.001  0.00  0.00    +0.000 C 
ATOM     22  O   UNL     1      -4.888   8.584  11.019  0.00  0.00    +0.000 OA
BRANCH  20  23
ATOM     23  O   UNL     1      -6.505   9.303  13.409  0.00  0.00    +0.000 OA
ATOM     24  H   UNL     1      -6.328  10.036  12.784  0.00  0.00    +0.000 HD
ENDBRANCH  20  23
BRANCH  19  25
ATOM     25  O   UNL     1      -8.969   8.744  12.026  0.00  0.00    +0.000 OA
ATOM     26  H   UNL     1      -9.101   8.254  12.863  0.00  0.00    +0.000 HD
ENDBRANCH  19  25
BRANCH  18  27
ATOM     27  O   UNL     1      -7.167  10.609  11.168  0.00  0.00    +0.000 OA
ATOM     28  H   UNL     1      -7.270  11.305  10.491  0.00  0.00    +0.000 HD
ENDBRANCH  18  27
BRANCH  21  29
ATOM     29  C   UNL     1      -4.255   7.512  13.054  0.00  0.00    +0.000 C 
BRANCH  29  30
ATOM     30  O   UNL     1      -3.479   8.694  13.170  0.00  0.00    +0.000 OA
ATOM     31  H   UNL     1      -4.066   9.435  12.924  0.00  0.00    +0.000 HD
ENDBRANCH  29  30
ENDBRANCH  21  29
ENDBRANCH   1  17
TORSDOF 12
ENDMDL
MODEL 5
REMARK VINA RESULT:    -5.382      1.487      6.463
REMARK INTER + INTRA:          -8.673
REMARK INTER:                  -7.675
REMARK INTRA:                  -0.999
REMARK UNBOUND:                -0.775
REMARK  Name = 
REMARK  12 active torsions:
REMARK  status: ('A' for Active; 'I' for Inactive)
REMARK    1  A    between atoms: C_1  and  C_2
REMARK    2  A    between atoms: C_1  and  O_23
REMARK    3  A    between atoms: C_3  and  O_22
REMARK    4  A    between atoms: C_4  and  O_21
REMARK    5  A    between atoms: C_5  and  O_20
REMARK    6  A    between atoms: C_6  and  O_8
REMARK    7  A    between atoms: O_8  and  C_9
REMARK    8  A    between atoms: C_10  and  O_19
REMARK    9  A    between atoms: C_11  and  O_18
REMARK   10  A    between atoms: C_12  and  O_17
REMARK   11  A    between atoms: C_13  and  C_15
REMARK   12  A    between atoms: C_15  and  O_16
REMARK                            x       y       z     vdW  Elec       q    Type
REMARK                         _______ _______ _______ _____ _____    ______ ____
ROOT
ATOM      1  O   UNL     1      -4.300   7.516  10.527  0.00  0.00    +0.000 OA
ENDROOT
BRANCH   1   6
ATOM      2  C   UNL     1      -7.218   8.770  10.764  0.00  0.00    +0.000 C 
ATOM      3  C   UNL     1      -7.192   9.321  12.198  0.00  0.00    +0.000 C 
ATOM      4  C   UNL     1      -5.775   9.181  12.771  0.00  0.00    +0.000 C 
ATOM      5  C   UNL     1      -5.332   7.713  12.728  0.00  0.00    +0.000 C 
ATOM      6  C   UNL     1      -5.443   7.139  11.291  0.00  0.00    +0.000 C 
ATOM      7  O   UNL     1      -6.700   7.437  10.673  0.00  0.00    +0.000 OA
BRANCH   5   8
ATOM      8  O   UNL     1      -6.189   6.998  13.652  0.00  0.00    +0.000 OA
ATOM      9  H   UNL     1      -6.491   6.184  13.195  0.00  0.00    +0.000 HD
ENDBRANCH   5   8
BRANCH   4  10
ATOM     10  O   UNL     1      -5.730   9.666  14.117  0.00  0.00    +0.000 OA
ATOM     11  H   UNL     1      -6.408   9.164  14.611  0.00  0.00    +0.000 HD
ENDBRANCH   4  10
BRANCH   3  12
ATOM     12  O   UNL     1      -8.160   8.625  13.003  0.00  0.00    +0.000 OA
ATOM     13  H   UNL     1      -9.052   8.870  12.676  0.00  0.00    +0.000 HD
ENDBRANCH   3  12
BRANCH   2  14
ATOM     14  C   UNL     1      -6.544   9.738   9.777  0.00  0.00    +0.000 C 
BRANCH  14  15
ATOM     15  O   UNL     1      -6.111   9.075   8.582  0.00  0.00    +0.000 OA
ATOM     16  H   UNL     1      -5.559   8.317   8.849  0.00  0.00    +0.000 HD
ENDBRANCH  14  15
ENDBRANCH   2  14
ENDBRANCH   1   6
BRANCH   1  17
ATOM     17  C   UNL     1      -3.551   6.400  10.036  0.00  0.00    +0.000 C 
ATOM     18  C   UNL     1      -4.236   5.833   8.766  0.00  0.00    +0.000 C 
ATOM     19  C   UNL     1      -3.881   6.676   7.537  0.00  0.00    +0.000 C 
ATOM     20  C   UNL     1      -2.356   6.788   7.389  0.00  0.00    +0.000 C 
ATOM     21  C   UNL     1      -1.795   7.404   8.682  0.00  0.00    +0.000 C 
ATOM     22  O   UNL     1      -2.161   6.654   9.843  0.00  0.00    +0.000 OA
BRANCH  20  23
ATOM     23  O   UNL     1      -1.737   5.515   7.129  0.00  0.00    +0.000 OA
ATOM     24  H   UNL     1      -2.454   4.854   7.036  0.00  0.00    +0.000 HD
ENDBRANCH  20  23
BRANCH  19  25
ATOM     25  O   UNL     1      -4.453   6.089   6.362  0.00  0.00    +0.000 OA
ATOM     26  H   UNL     1      -3.727   5.612   5.910  0.00  0.00    +0.000 HD
ENDBRANCH  19  25
BRANCH  18  27
ATOM     27  O   UNL     1      -3.807   4.481   8.473  0.00  0.00    +0.000 OA
ATOM     28  H   UNL     1      -4.295   3.883   9.073  0.00  0.00    +0.000 HD
ENDBRANCH  18  27
BRANCH  21  29
ATOM     29  C   UNL     1      -0.261   7.484   8.661  0.00  0.00    +0.000 C 
BRANCH  29  30
ATOM     30  O   UNL     1       0.246   7.477   7.335  0.00  0.00    +0.000 OA
ATOM     31  H   UNL     1       0.821   6.691   7.264  0.00  0.00    +0.000 HD
ENDBRANCH  29  30
ENDBRANCH  21  29
ENDBRANCH   1  17
TORSDOF 12
ENDMDL
MODEL 6
REMARK VINA RESULT:    -5.364      1.584      6.392
REMARK INTER + INTRA:          -8.648
REMARK INTER:                  -7.623
REMARK INTRA:                  -1.025
REMARK UNBOUND:                -0.775
REMARK  Name = 
REMARK  12 active torsions:
REMARK  status: ('A' for Active; 'I' for Inactive)
REMARK    1  A    between atoms: C_1  and  C_2
REMARK    2  A    between atoms: C_1  and  O_23
REMARK    3  A    between atoms: C_3  and  O_22
REMARK    4  A    between atoms: C_4  and  O_21
REMARK    5  A    between atoms: C_5  and  O_20
REMARK    6  A    between atoms: C_6  and  O_8
REMARK    7  A    between atoms: O_8  and  C_9
REMARK    8  A    between atoms: C_10  and  O_19
REMARK    9  A    between atoms: C_11  and  O_18
REMARK   10  A    between atoms: C_12  and  O_17
REMARK   11  A    between atoms: C_13  and  C_15
REMARK   12  A    between atoms: C_15  and  O_16
REMARK                            x       y       z     vdW  Elec       q    Type
REMARK                         _______ _______ _______ _____ _____    ______ ____
ROOT
ATOM      1  O   UNL     1      -4.545   8.707  10.002  0.00  0.00    +0.000 OA
ENDROOT
BRANCH   1   6
ATOM      2  C   UNL     1      -5.593   8.887  13.004  0.00  0.00    +0.000 C 
ATOM      3  C   UNL     1      -6.907   8.097  12.912  0.00  0.00    +0.000 C 
ATOM      4  C   UNL     1      -7.019   7.459  11.520  0.00  0.00    +0.000 C 
ATOM      5  C   UNL     1      -6.940   8.540  10.436  0.00  0.00    +0.000 C 
ATOM      6  C   UNL     1      -5.650   9.389  10.589  0.00  0.00    +0.000 C 
ATOM      7  O   UNL     1      -5.436   9.829  11.935  0.00  0.00    +0.000 OA
BRANCH   5   8
ATOM      8  O   UNL     1      -8.130   9.354  10.579  0.00  0.00    +0.000 OA
ATOM      9  H   UNL     1      -8.331   9.731   9.695  0.00  0.00    +0.000 HD
ENDBRANCH   5   8
BRANCH   4  10
ATOM     10  O   UNL     1      -8.249   6.736  11.400  0.00  0.00    +0.000 OA
ATOM     11  H   UNL     1      -8.204   6.259  10.547  0.00  0.00    +0.000 HD
ENDBRANCH   4  10
BRANCH   3  12
ATOM     12  O   UNL     1      -8.018   8.968  13.185  0.00  0.00    +0.000 OA
ATOM     13  H   UNL     1      -7.932   9.281  14.111  0.00  0.00    +0.000 HD
ENDBRANCH   3  12
BRANCH   2  14
ATOM     14  C   UNL     1      -4.382   7.950  13.154  0.00  0.00    +0.000 C 
BRANCH  14  15
ATOM     15  O   UNL     1      -3.146   8.615  12.863  0.00  0.00    +0.000 OA
ATOM     16  H   UNL     1      -3.271   9.125  12.042  0.00  0.00    +0.000 HD
ENDBRANCH  14  15
ENDBRANCH   2  14
ENDBRANCH   1   6
BRANCH   1  17
ATOM     17  C   UNL     1      -4.846   8.130   8.728  0.00  0.00    +0.000 C 
ATOM     18  C   UNL     1      -4.482   9.133   7.604  0.00  0.00    +0.000 C 
ATOM     19  C   UNL     1      -2.977   9.105   7.319  0.00  0.00    +0.000 C 
ATOM     20  C   UNL     1      -2.520   7.672   7.005  0.00  0.00    +0.000 C 
ATOM     21  C   UNL     1      -2.888   6.780   8.204  0.00  0.00    +0.000 C 
ATOM     22  O   UNL     1      -4.283   6.836   8.513  0.00  0.00    +0.000 OA
BRANCH  20  23
ATOM     23  O   UNL     1      -3.113   7.160   5.798  0.00  0.00    +0.000 OA
ATOM     24  H   UNL     1      -2.630   6.343   5.558  0.00  0.00    +0.000 HD
ENDBRANCH  20  23
BRANCH  19  25
ATOM     25  O   UNL     1      -2.673   9.975   6.221  0.00  0.00    +0.000 OA
ATOM     26  H   UNL     1      -3.305  10.719   6.275  0.00  0.00    +0.000 HD
ENDBRANCH  19  25
BRANCH  18  27
ATOM     27  O   UNL     1      -5.142   8.815   6.354  0.00  0.00    +0.000 OA
ATOM     28  H   UNL     1      -5.892   8.225   6.562  0.00  0.00    +0.000 HD
ENDBRANCH  18  27
BRANCH  21  29
ATOM     29  C   UNL     1      -2.540   5.306   7.950  0.00  0.00    +0.000 C 
BRANCH  29  30
ATOM     30  O   UNL     1      -3.635   4.597   7.392  0.00  0.00    +0.000 OA
ATOM     31  H   UNL     1      -3.316   4.214   6.552  0.00  0.00    +0.000 HD
ENDBRANCH  29  30
ENDBRANCH  21  29
ENDBRANCH   1  17
TORSDOF 12
ENDMDL
MODEL 7
REMARK VINA RESULT:    -5.335      1.661      6.500
REMARK INTER + INTRA:          -8.605
REMARK INTER:                  -7.830
REMARK INTRA:                  -0.775
REMARK UNBOUND:                -0.775
REMARK  Name = 
REMARK  12 active torsions:
REMARK  status: ('A' for Active; 'I' for Inactive)
REMARK    1  A    between atoms: C_1  and  C_2
REMARK    2  A    between atoms: C_1  and  O_23
REMARK    3  A    between atoms: C_3  and  O_22
REMARK    4  A    between atoms: C_4  and  O_21
REMARK    5  A    between atoms: C_5  and  O_20
REMARK    6  A    between atoms: C_6  and  O_8
REMARK    7  A    between atoms: O_8  and  C_9
REMARK    8  A    between atoms: C_10  and  O_19
REMARK    9  A    between atoms: C_11  and  O_18
REMARK   10  A    between atoms: C_12  and  O_17
REMARK   11  A    between atoms: C_13  and  C_15
REMARK   12  A    between atoms: C_15  and  O_16
REMARK                            x       y       z     vdW  Elec       q    Type
REMARK                         _______ _______ _______ _____ _____    ______ ____
ROOT
ATOM      1  O   UNL     1      -3.614   8.455   9.603  0.00  0.00    +0.000 OA
ENDROOT
BRANCH   1   6
ATOM      2  C   UNL     1      -6.201   7.360  11.104  0.00  0.00    +0.000 C 
ATOM      3  C   UNL     1      -6.151   8.163  12.413  0.00  0.00    +0.000 C 
ATOM      4  C   UNL     1      -5.030   9.208  12.326  0.00  0.00    +0.000 C 
ATOM      5  C   UNL     1      -3.689   8.520  12.041  0.00  0.00    +0.000 C 
ATOM      6  C   UNL     1      -3.773   7.643  10.764  0.00  0.00    +0.000 C 
ATOM      7  O   UNL     1      -4.931   6.799  10.749  0.00  0.00    +0.000 OA
BRANCH   5   8
ATOM      8  O   UNL     1      -3.378   7.725  13.211  0.00  0.00    +0.000 OA
ATOM      9  H   UNL     1      -3.819   8.152  13.977  0.00  0.00    +0.000 HD
ENDBRANCH   5   8
BRANCH   4  10
ATOM     10  O   UNL     1      -4.947   9.954  13.545  0.00  0.00    +0.000 OA
ATOM     11  H   UNL     1      -4.412  10.747  13.344  0.00  0.00    +0.000 HD
ENDBRANCH   4  10
BRANCH   3  12
ATOM     12  O   UNL     1      -5.957   7.270  13.523  0.00  0.00    +0.000 OA
ATOM     13  H   UNL     1      -5.852   6.364  13.163  0.00  0.00    +0.000 HD
ENDBRANCH   3  12
BRANCH   2  14
ATOM     14  C   UNL     1      -6.828   8.181   9.964  0.00  0.00    +0.000 C 
BRANCH  14  15
ATOM     15  O   UNL     1      -7.947   8.958  10.412  0.00  0.00    +0.000 OA
ATOM     16  H   UNL     1      -7.834   9.864  10.069  0.00  0.00    +0.000 HD
ENDBRANCH  14  15
ENDBRANCH   2  14
ENDBRANCH   1   6
BRANCH   1  17
ATOM     17  C   UNL     1      -3.755   7.730   8.378  0.00  0.00    +0.000 C 
ATOM     18  C   UNL     1      -4.246   8.687   7.262  0.00  0.00    +0.000 C 
ATOM     19  C   UNL     1      -3.079   9.508   6.701  0.00  0.00    +0.000 C 
ATOM     20  C   UNL     1      -1.950   8.579   6.231  0.00  0.00    +0.000 C 
ATOM     21  C   UNL     1      -1.514   7.715   7.428  0.00  0.00    +0.000 C 
ATOM     22  O   UNL     1      -2.603   6.982   7.993  0.00  0.00    +0.000 OA
BRANCH  20  23
ATOM     23  O   UNL     1      -2.351   7.744   5.129  0.00  0.00    +0.000 OA
ATOM     24  H   UNL     1      -3.224   8.064   4.822  0.00  0.00    +0.000 HD
ENDBRANCH  20  23
BRANCH  19  25
ATOM     25  O   UNL     1      -3.536  10.323   5.614  0.00  0.00    +0.000 OA
ATOM     26  H   UNL     1      -3.649  11.226   5.975  0.00  0.00    +0.000 HD
ENDBRANCH  19  25
BRANCH  18  27
ATOM     27  O   UNL     1      -4.818   7.970   6.142  0.00  0.00    +0.000 OA
ATOM     28  H   UNL     1      -4.856   7.026   6.388  0.00  0.00    +0.000 HD
ENDBRANCH  18  27
BRANCH  21  29
ATOM     29  C   UNL     1      -0.437   6.693   7.035  0.00  0.00    +0.000 C 
BRANCH  29  30
ATOM     30  O   UNL     1      -0.994   5.580   6.353  0.00  0.00    +0.000 OA
ATOM     31  H   UNL     1      -1.678   5.210   6.944  0.00  0.00    +0.000 HD
ENDBRANCH  29  30
ENDBRANCH  21  29
ENDBRANCH   1  17
TORSDOF 12
ENDMDL
MODEL 8
REMARK VINA RESULT:    -5.219      2.496      4.181
REMARK INTER + INTRA:          -8.434
REMARK INTER:                  -7.480
REMARK INTRA:                  -0.955
REMARK UNBOUND:                -0.775
REMARK  Name = 
REMARK  12 active torsions:
REMARK  status: ('A' for Active; 'I' for Inactive)
REMARK    1  A    between atoms: C_1  and  C_2
REMARK    2  A    between atoms: C_1  and  O_23
REMARK    3  A    between atoms: C_3  and  O_22
REMARK    4  A    between atoms: C_4  and  O_21
REMARK    5  A    between atoms: C_5  and  O_20
REMARK    6  A    between atoms: C_6  and  O_8
REMARK    7  A    between atoms: O_8  and  C_9
REMARK    8  A    between atoms: C_10  and  O_19
REMARK    9  A    between atoms: C_11  and  O_18
REMARK   10  A    between atoms: C_12  and  O_17
REMARK   11  A    between atoms: C_13  and  C_15
REMARK   12  A    between atoms: C_15  and  O_16
REMARK                            x       y       z     vdW  Elec       q    Type
REMARK                         _______ _______ _______ _____ _____    ______ ____
ROOT
ATOM      1  O   UNL     1      -4.143   8.909   7.538  0.00  0.00    +0.000 OA
ENDROOT
BRANCH   1   6
ATOM      2  C   UNL     1      -3.353   7.422   4.835  0.00  0.00    +0.000 C 
ATOM      3  C   UNL     1      -2.531   8.508   4.124  0.00  0.00    +0.000 C 
ATOM      4  C   UNL     1      -2.325   9.694   5.076  0.00  0.00    +0.000 C 
ATOM      5  C   UNL     1      -3.681  10.236   5.544  0.00  0.00    +0.000 C 
ATOM      6  C   UNL     1      -4.539   9.113   6.184  0.00  0.00    +0.000 C 
ATOM      7  O   UNL     1      -4.577   7.924   5.386  0.00  0.00    +0.000 OA
BRANCH   5   8
ATOM      8  O   UNL     1      -4.326  10.795   4.374  0.00  0.00    +0.000 OA
ATOM      9  H   UNL     1      -3.903  10.388   3.587  0.00  0.00    +0.000 HD
ENDBRANCH   5   8
BRANCH   4  10
ATOM     10  O   UNL     1      -1.581  10.731   4.428  0.00  0.00    +0.000 OA
ATOM     11  H   UNL     1      -2.240  11.364   4.080  0.00  0.00    +0.000 HD
ENDBRANCH   4  10
BRANCH   3  12
ATOM     12  O   UNL     1      -3.199   8.909   2.915  0.00  0.00    +0.000 OA
ATOM     13  H   UNL     1      -2.889   8.322   2.193  0.00  0.00    +0.000 HD
ENDBRANCH   3  12
BRANCH   2  14
ATOM     14  C   UNL     1      -2.504   6.659   5.867  0.00  0.00    +0.000 C 
BRANCH  14  15
ATOM     15  O   UNL     1      -3.132   5.440   6.286  0.00  0.00    +0.000 OA
ATOM     16  H   UNL     1      -2.428   4.782   6.434  0.00  0.00    +0.000 HD
ENDBRANCH  14  15
ENDBRANCH   2  14
ENDBRANCH   1   6
BRANCH   1  17
ATOM     17  C   UNL     1      -5.020   8.041   8.262  0.00  0.00    +0.000 C 
ATOM     18  C   UNL     1      -4.193   7.160   9.233  0.00  0.00    +0.000 C 
ATOM     19  C   UNL     1      -3.837   7.941  10.502  0.00  0.00    +0.000 C 
ATOM     20  C   UNL     1      -5.106   8.511  11.153  0.00  0.00    +0.000 C 
ATOM     21  C   UNL     1      -5.815   9.402  10.118  0.00  0.00    +0.000 C 
ATOM     22  O   UNL     1      -6.109   8.698   8.908  0.00  0.00    +0.000 OA
BRANCH  20  23
ATOM     23  O   UNL     1      -5.994   7.478  11.618  0.00  0.00    +0.000 OA
ATOM     24  H   UNL     1      -6.505   7.161  10.844  0.00  0.00    +0.000 HD
ENDBRANCH  20  23
BRANCH  19  25
ATOM     25  O   UNL     1      -3.148   7.086  11.423  0.00  0.00    +0.000 OA
ATOM     26  H   UNL     1      -2.196   7.160  11.209  0.00  0.00    +0.000 HD
ENDBRANCH  19  25
BRANCH  18  27
ATOM     27  O   UNL     1      -4.928   5.989   9.666  0.00  0.00    +0.000 OA
ATOM     28  H   UNL     1      -5.744   6.300  10.102  0.00  0.00    +0.000 HD
ENDBRANCH  18  27
BRANCH  21  29
ATOM     29  C   UNL     1      -7.143   9.957  10.652  0.00  0.00    +0.000 C 
BRANCH  29  30
ATOM     30  O   UNL     1      -8.200   9.020  10.506  0.00  0.00    +0.000 OA
ATOM     31  H   UNL     1      -8.721   9.062  11.331  0.00  0.00    +0.000 HD
ENDBRANCH  29  30
ENDBRANCH  21  29
ENDBRANCH   1  17
TORSDOF 12
ENDMDL
MODEL 9
REMARK VINA RESULT:    -5.196      2.494      7.204
REMARK INTER + INTRA:          -8.400
REMARK INTER:                  -7.414
REMARK INTRA:                  -0.986
REMARK UNBOUND:                -0.775
REMARK  Name = 
REMARK  12 active torsions:
REMARK  status: ('A' for Active; 'I' for Inactive)
REMARK    1  A    between atoms: C_1  and  C_2
REMARK    2  A    between atoms: C_1  and  O_23
REMARK    3  A    between atoms: C_3  and  O_22
REMARK    4  A    between atoms: C_4  and  O_21
REMARK    5  A    between atoms: C_5  and  O_20
REMARK    6  A    between atoms: C_6  and  O_8
REMARK    7  A    between atoms: O_8  and  C_9
REMARK    8  A    between atoms: C_10  and  O_19
REMARK    9  A    between atoms: C_11  and  O_18
REMARK   10  A    between atoms: C_12  and  O_17
REMARK   11  A    between atoms: C_13  and  C_15
REMARK   12  A    between atoms: C_15  and  O_16
REMARK                            x       y       z     vdW  Elec       q    Type
REMARK                         _______ _______ _______ _____ _____    ______ ____
ROOT
ATOM      1  O   UNL     1      -4.028   7.490   7.354  0.00  0.00    +0.000 OA
ENDROOT
BRANCH   1   6
ATOM      2  C   UNL     1      -3.497   7.356  10.491  0.00  0.00    +0.000 C 
ATOM      3  C   UNL     1      -4.929   7.437  11.042  0.00  0.00    +0.000 C 
ATOM      4  C   UNL     1      -5.926   7.369   9.877  0.00  0.00    +0.000 C 
ATOM      5  C   UNL     1      -5.646   8.497   8.876  0.00  0.00    +0.000 C 
ATOM      6  C   UNL     1      -4.173   8.458   8.390  0.00  0.00    +0.000 C 
ATOM      7  O   UNL     1      -3.239   8.325   9.468  0.00  0.00    +0.000 OA
BRANCH   5   8
ATOM      8  O   UNL     1      -5.946   9.737   9.561  0.00  0.00    +0.000 OA
ATOM      9  H   UNL     1      -6.515  10.268   8.963  0.00  0.00    +0.000 HD
ENDBRANCH   5   8
BRANCH   4  10
ATOM     10  O   UNL     1      -7.269   7.468  10.362  0.00  0.00    +0.000 OA
ATOM     11  H   UNL     1      -7.650   8.268   9.950  0.00  0.00    +0.000 HD
ENDBRANCH   4  10
BRANCH   3  12
ATOM     12  O   UNL     1      -5.087   8.647  11.803  0.00  0.00    +0.000 OA
ATOM     13  H   UNL     1      -6.043   8.760  11.991  0.00  0.00    +0.000 HD
ENDBRANCH   3  12
BRANCH   2  14
ATOM     14  C   UNL     1      -3.143   5.923  10.055  0.00  0.00    +0.000 C 
BRANCH  14  15
ATOM     15  O   UNL     1      -1.940   5.878   9.277  0.00  0.00    +0.000 OA
ATOM     16  H   UNL     1      -1.187   5.873   9.897  0.00  0.00    +0.000 HD
ENDBRANCH  14  15
ENDBRANCH   2  14
ENDBRANCH   1   6
BRANCH   1  17
ATOM     17  C   UNL     1      -2.836   7.661   6.580  0.00  0.00    +0.000 C 
ATOM     18  C   UNL     1      -2.735   6.528   5.526  0.00  0.00    +0.000 C 
ATOM     19  C   UNL     1      -3.625   6.834   4.317  0.00  0.00    +0.000 C 
ATOM     20  C   UNL     1      -3.283   8.215   3.737  0.00  0.00    +0.000 C 
ATOM     21  C   UNL     1      -3.464   9.259   4.854  0.00  0.00    +0.000 C 
ATOM     22  O   UNL     1      -2.677   8.959   6.009  0.00  0.00    +0.000 OA
BRANCH  20  23
ATOM     23  O   UNL     1      -1.946   8.272   3.210  0.00  0.00    +0.000 OA
ATOM     24  H   UNL     1      -2.012   8.550   2.273  0.00  0.00    +0.000 HD
ENDBRANCH  20  23
BRANCH  19  25
ATOM     25  O   UNL     1      -3.453   5.820   3.318  0.00  0.00    +0.000 OA
ATOM     26  H   UNL     1      -2.866   5.143   3.710  0.00  0.00    +0.000 HD
ENDBRANCH  19  25
BRANCH  18  27
ATOM     27  O   UNL     1      -1.388   6.377   5.017  0.00  0.00    +0.000 OA
ATOM     28  H   UNL     1      -1.449   5.905   4.163  0.00  0.00    +0.000 HD
ENDBRANCH  18  27
BRANCH  21  29
ATOM     29  C   UNL     1      -3.068  10.668   4.391  0.00  0.00    +0.000 C 
BRANCH  29  30
ATOM     30  O   UNL     1      -1.660  10.845   4.395  0.00  0.00    +0.000 OA
ATOM     31  H   UNL     1      -1.406  11.050   3.474  0.00  0.00    +0.000 HD
ENDBRANCH  29  30
ENDBRANCH  21  29
ENDBRANCH   1  17
TORSDOF 12
ENDMDL
