MODEL 1
REMARK VINA RESULT:    -4.612      0.000      0.000
REMARK INTER + INTRA:          -5.841
REMARK INTER:                  -5.576
REMARK INTRA:                  -0.265
REMARK UNBOUND:                -0.285
REMARK  Name = 
REMARK  6 active torsions:
REMARK  status: ('A' for Active; 'I' for Inactive)
REMARK    1  A    between atoms: C_1  and  O_13
REMARK    2  A    between atoms: C_2  and  O_12
REMARK    3  A    between atoms: C_3  and  O_11
REMARK    4  A    between atoms: C_4  and  O_10
REMARK    5  A    between atoms: C_5  and  C_7
REMARK    6  A    between atoms: C_7  and  O_9
REMARK                            x       y       z     vdW  Elec       q    Type
REMARK                         _______ _______ _______ _____ _____    ______ ____
ROOT
ATOM      1  C   UNL     1      -5.305   8.997  12.950  0.00  0.00    +0.000 C 
ATOM      2  C   UNL     1      -5.393   8.997  11.411  0.00  0.00    +0.000 C 
ATOM      3  C   UNL     1      -6.822   9.340  10.985  0.00  0.00    +0.000 C 
ATOM      4  C   UNL     1      -7.841   8.428  11.681  0.00  0.00    +0.000 C 
ATOM      5  C   UNL     1      -7.629   8.444  13.202  0.00  0.00    +0.000 C 
ATOM      6  O   UNL     1      -6.273   8.156  13.560  0.00  0.00    +0.000 OA
ENDROOT
BRANCH   5   7
ATOM      7  C   UNL     1      -8.530   7.374  13.811  0.00  0.00    +0.000 C 
ATOM      8  O   UNL     1      -8.188   6.306  14.290  0.00  0.00    +0.000 OA
BRANCH   7   9
ATOM      9  O   UNL     1      -9.840   7.708  13.782  0.00  0.00    +0.000 OA
ATOM     10  H   UNL     1     -10.286   6.932  14.177  0.00  0.00    +0.000 HD
ENDBRANCH   7   9
ENDBRANCH   5   7
BRANCH   4  11
ATOM     11  O   UNL     1      -9.156   8.880  11.326  0.00  0.00    +0.000 OA
ATOM     12  H   UNL     1      -9.231   9.794  11.670  0.00  0.00    +0.000 HD
ENDBRANCH   4  11
BRANCH   3  13
ATOM     13  O   UNL     1      -7.153  10.712  11.275  0.00  0.00    +0.000 OA
ATOM     14  H   UNL     1      -6.341  11.252  11.146  0.00  0.00    +0.000 HD
ENDBRANCH   3  13
BRANCH   2  15
ATOM     15  O   UNL     1      -5.003   7.726  10.886  0.00  0.00    +0.000 OA
ATOM     16  H   UNL     1      -5.738   7.386  10.345  0.00  0.00    +0.000 HD
ENDBRANCH   2  15
BRANCH   1  17
ATOM     17  O   UNL     1      -5.457  10.332  13.427  0.00  0.00    +0.000 OA
ATOM     18  H   UNL     1      -5.442  10.893  12.630  0.00  0.00    +0.000 HD
ENDBRANCH   1  17
TORSDOF 6
ENDMDL
MODEL 2
REMARK VINA RESULT:    -4.574      1.641      4.099
REMARK INTER + INTRA:          -5.795
REMARK INTER:                  -5.509
REMARK INTRA:                  -0.286
REMARK UNBOUND:                -0.285
REMARK  Name = 
REMARK  6 active torsions:
REMARK  status: ('A' for Active; 'I' for Inactive)
REMARK    1  A    between atoms: C_1  and  O_13
REMARK    2  A    between atoms: C_2  and  O_12
REMARK    3  A    between atoms: C_3  and  O_11
REMARK    4  A    between atoms: C_4  and  O_10
REMARK    5  A    between atoms: C_5  and  C_7
REMARK    6  A    between atoms: C_7  and  O_9
REMARK                            x       y       z     vdW  Elec       q    Type
REMARK                         _______ _______ _______ _____ _____    ______ ____
ROOT
ATOM      1  C   UNL     1      -6.602   7.219  10.920  0.00  0.00    +0.000 C 
ATOM      2  C   UNL     1      -7.552   7.782  11.996  0.00  0.00    +0.000 C 
ATOM      3  C   UNL     1      -7.136   9.212  12.342  0.00  0.00    +0.000 C 
ATOM      4  C   UNL     1      -5.647   9.283  12.708  0.00  0.00    +0.000 C 
ATOM      5  C   UNL     1      -4.791   8.640  11.607  0.00  0.00    +0.000 C 
ATOM      6  O   UNL     1      -5.232   7.317  11.284  0.00  0.00    +0.000 OA
ENDROOT
BRANCH   5   7
ATOM      7  C   UNL     1      -3.355   8.560  12.118  0.00  0.00    +0.000 C 
ATOM      8  O   UNL     1      -2.338   8.463  11.452  0.00  0.00    +0.000 OA
BRANCH   7   9
ATOM      9  O   UNL     1      -3.272   8.602  13.467  0.00  0.00    +0.000 OA
ATOM     10  H   UNL     1      -4.205   8.568  13.758  0.00  0.00    +0.000 HD
ENDBRANCH   7   9
ENDBRANCH   5   7
BRANCH   4  11
ATOM     11  O   UNL     1      -5.304  10.662  12.907  0.00  0.00    +0.000 OA
ATOM     12  H   UNL     1      -4.326  10.704  12.898  0.00  0.00    +0.000 HD
ENDBRANCH   4  11
BRANCH   3  13
ATOM     13  O   UNL     1      -7.390  10.123  11.255  0.00  0.00    +0.000 OA
ATOM     14  H   UNL     1      -6.524  10.366  10.857  0.00  0.00    +0.000 HD
ENDBRANCH   3  13
BRANCH   2  15
ATOM     15  O   UNL     1      -7.533   6.955  13.162  0.00  0.00    +0.000 OA
ATOM     16  H   UNL     1      -6.707   7.137  13.645  0.00  0.00    +0.000 HD
ENDBRANCH   2  15
BRANCH   1  17
ATOM     17  O   UNL     1      -6.824   7.911   9.693  0.00  0.00    +0.000 OA
ATOM     18  H   UNL     1      -7.696   8.335   9.791  0.00  0.00    +0.000 HD
ENDBRANCH   1  17
TORSDOF 6
ENDMDL
MODEL 3
REMARK VINA RESULT:    -4.421      1.918      3.862
REMARK INTER + INTRA:          -5.611
REMARK INTER:                  -5.337
REMARK INTRA:                  -0.274
REMARK UNBOUND:                -0.285
REMARK  Name = 
REMARK  6 active torsions:
REMARK  status: ('A' for Active; 'I' for Inactive)
REMARK    1  A    between atoms: C_1  and  O_13
REMARK    2  A    between atoms: C_2  and  O_12
REMARK    3  A    between atoms: C_3  and  O_11
REMARK    4  A    between atoms: C_4  and  O_10
REMARK    5  A    between atoms: C_5  and  C_7
REMARK    6  A    between atoms: C_7  and  O_9
REMARK                            x       y       z     vdW  Elec       q    Type
REMARK                         _______ _______ _______ _____ _____    ______ ____
ROOT
ATOM      1  C   UNL     1      -6.199   9.246  13.512  0.00  0.00    +0.000 C 
ATOM      2  C   UNL     1      -5.473   7.887  13.571  0.00  0.00    +0.000 C 
ATOM      3  C   UNL     1      -4.408   7.833  12.474  0.00  0.00    +0.000 C 
ATOM      4  C   UNL     1      -5.008   8.175  11.104  0.00  0.00    +0.000 C 
ATOM      5  C   UNL     1      -5.765   9.510  11.164  0.00  0.00    +0.000 C 
ATOM      6  O   UNL     1      -6.726   9.537  12.225  0.00  0.00    +0.000 OA
ENDROOT
BRANCH   5   7
ATOM      7  C   UNL     1      -6.500   9.691   9.840  0.00  0.00    +0.000 C 
ATOM      8  O   UNL     1      -6.016   9.990   8.761  0.00  0.00    +0.000 OA
BRANCH   7   9
ATOM      9  O   UNL     1      -7.833   9.489   9.944  0.00  0.00    +0.000 OA
ATOM     10  H   UNL     1      -8.039   8.905   9.186  0.00  0.00    +0.000 HD
ENDBRANCH   7   9
ENDBRANCH   5   7
BRANCH   4  11
ATOM     11  O   UNL     1      -3.936   8.218  10.150  0.00  0.00    +0.000 OA
ATOM     12  H   UNL     1      -4.319   8.583   9.326  0.00  0.00    +0.000 HD
ENDBRANCH   4  11
BRANCH   3  13
ATOM     13  O   UNL     1      -3.316   8.735  12.742  0.00  0.00    +0.000 OA
ATOM     14  H   UNL     1      -2.625   8.234  13.230  0.00  0.00    +0.000 HD
ENDBRANCH   3  13
BRANCH   2  15
ATOM     15  O   UNL     1      -6.405   6.813  13.422  0.00  0.00    +0.000 OA
ATOM     16  H   UNL     1      -6.157   6.112  14.050  0.00  0.00    +0.000 HD
ENDBRANCH   2  15
BRANCH   1  17
ATOM     17  O   UNL     1      -5.297  10.276  13.907  0.00  0.00    +0.000 OA
ATOM     18  H   UNL     1      -4.424   9.994  13.576  0.00  0.00    +0.000 HD
ENDBRANCH   1  17
TORSDOF 6
ENDMDL
MODEL 4
REMARK VINA RESULT:    -4.394      1.736      3.582
REMARK INTER + INTRA:          -5.579
REMARK INTER:                  -5.304
REMARK INTRA:                  -0.275
REMARK UNBOUND:                -0.285
REMARK  Name = 
REMARK  6 active torsions:
REMARK  status: ('A' for Active; 'I' for Inactive)
REMARK    1  A    between atoms: C_1  and  O_13
REMARK    2  A    between atoms: C_2  and  O_12
REMARK    3  A    between atoms: C_3  and  O_11
REMARK    4  A    between atoms: C_4  and  O_10
REMARK    5  A    between atoms: C_5  and  C_7
REMARK    6  A    between atoms: C_7  and  O_9
REMARK                            x       y       z     vdW  Elec       q    Type
REMARK                         _______ _______ _______ _____ _____    ______ ____
ROOT
ATOM      1  C   UNL     1      -5.907   7.470  13.147  0.00  0.00    +0.000 C 
ATOM      2  C   UNL     1      -6.125   8.989  13.294  0.00  0.00    +0.000 C 
ATOM      3  C   UNL     1      -7.160   9.454  12.269  0.00  0.00    +0.000 C 
ATOM      4  C   UNL     1      -6.780   9.000  10.853  0.00  0.00    +0.000 C 
ATOM      5  C   UNL     1      -6.520   7.487  10.824  0.00  0.00    +0.000 C 
ATOM      6  O   UNL     1      -5.574   7.083  11.821  0.00  0.00    +0.000 OA
ENDROOT
BRANCH   5   7
ATOM      7  C   UNL     1      -5.956   7.136   9.451  0.00  0.00    +0.000 C 
ATOM      8  O   UNL     1      -5.972   7.827   8.446  0.00  0.00    +0.000 OA
BRANCH   7   9
ATOM      9  O   UNL     1      -5.394   5.906   9.409  0.00  0.00    +0.000 OA
ATOM     10  H   UNL     1      -5.515   5.565  10.318  0.00  0.00    +0.000 HD
ENDBRANCH   7   9
ENDBRANCH   5   7
BRANCH   4  11
ATOM     11  O   UNL     1      -7.847   9.370   9.968  0.00  0.00    +0.000 OA
ATOM     12  H   UNL     1      -8.661   8.975  10.343  0.00  0.00    +0.000 HD
ENDBRANCH   4  11
BRANCH   3  13
ATOM     13  O   UNL     1      -8.479   8.962  12.576  0.00  0.00    +0.000 OA
ATOM     14  H   UNL     1      -9.077   9.225  11.841  0.00  0.00    +0.000 HD
ENDBRANCH   3  13
BRANCH   2  15
ATOM     15  O   UNL     1      -4.891   9.691  13.120  0.00  0.00    +0.000 OA
ATOM     16  H   UNL     1      -4.295   9.124  12.598  0.00  0.00    +0.000 HD
ENDBRANCH   2  15
BRANCH   1  17
ATOM     17  O   UNL     1      -7.086   6.786  13.566  0.00  0.00    +0.000 OA
ATOM     18  H   UNL     1      -7.731   7.487  13.771  0.00  0.00    +0.000 HD
ENDBRANCH   1  17
TORSDOF 6
ENDMDL
MODEL 5
REMARK VINA RESULT:    -4.362      1.792      3.482
REMARK INTER + INTRA:          -5.540
REMARK INTER:                  -5.266
REMARK INTRA:                  -0.274
REMARK UNBOUND:                -0.285
REMARK  Name = 
REMARK  6 active torsions:
REMARK  status: ('A' for Active; 'I' for Inactive)
REMARK    1  A    between atoms: C_1  and  O_13
REMARK    2  A    between atoms: C_2  and  O_12
REMARK    3  A    between atoms: C_3  and  O_11
REMARK    4  A    between atoms: C_4  and  O_10
REMARK    5  A    between atoms: C_5  and  C_7
REMARK    6  A    between atoms: C_7  and  O_9
REMARK                            x       y       z     vdW  Elec       q    Type
REMARK                         _______ _______ _______ _____ _____    ______ ____
ROOT
ATOM      1  C   UNL     1      -6.191   9.717  11.066  0.00  0.00    +0.000 C 
ATOM      2  C   UNL     1      -7.252   8.639  10.771  0.00  0.00    +0.000 C 
ATOM      3  C   UNL     1      -7.539   7.847  12.048  0.00  0.00    +0.000 C 
ATOM      4  C   UNL     1      -6.243   7.310  12.669  0.00  0.00    +0.000 C 
ATOM      5  C   UNL     1      -5.228   8.446  12.863  0.00  0.00    +0.000 C 
ATOM      6  O   UNL     1      -5.012   9.188  11.657  0.00  0.00    +0.000 OA
ENDROOT
BRANCH   5   7
ATOM      7  C   UNL     1      -3.903   7.821  13.290  0.00  0.00    +0.000 C 
ATOM      8  O   UNL     1      -3.735   6.737  13.823  0.00  0.00    +0.000 OA
BRANCH   7   9
ATOM      9  O   UNL     1      -2.837   8.610  13.025  0.00  0.00    +0.000 OA
ATOM     10  H   UNL     1      -2.069   8.036  13.220  0.00  0.00    +0.000 HD
ENDBRANCH   7   9
ENDBRANCH   5   7
BRANCH   4  11
ATOM     11  O   UNL     1      -6.577   6.682  13.915  0.00  0.00    +0.000 OA
ATOM     12  H   UNL     1      -6.974   5.816  13.686  0.00  0.00    +0.000 HD
ENDBRANCH   4  11
BRANCH   3  13
ATOM     13  O   UNL     1      -8.230   8.644  13.030  0.00  0.00    +0.000 OA
ATOM     14  H   UNL     1      -8.802   9.284  12.549  0.00  0.00    +0.000 HD
ENDBRANCH   3  13
BRANCH   2  15
ATOM     15  O   UNL     1      -6.806   7.769   9.728  0.00  0.00    +0.000 OA
ATOM     16  H   UNL     1      -6.394   6.991  10.143  0.00  0.00    +0.000 HD
ENDBRANCH   2  15
BRANCH   1  17
ATOM     17  O   UNL     1      -6.756  10.707  11.923  0.00  0.00    +0.000 OA
ATOM     18  H   UNL     1      -6.368  10.538  12.802  0.00  0.00    +0.000 HD
ENDBRANCH   1  17
TORSDOF 6
ENDMDL
MODEL 6
REMARK VINA RESULT:    -4.321      1.119      2.772
REMARK INTER + INTRA:          -5.491
REMARK INTER:                  -5.210
REMARK INTRA:                  -0.281
REMARK UNBOUND:                -0.285
REMARK  Name = 
REMARK  6 active torsions:
REMARK  status: ('A' for Active; 'I' for Inactive)
REMARK    1  A    between atoms: C_1  and  O_13
REMARK    2  A    between atoms: C_2  and  O_12
REMARK    3  A    between atoms: C_3  and  O_11
REMARK    4  A    between atoms: C_4  and  O_10
REMARK    5  A    between atoms: C_5  and  C_7
REMARK    6  A    between atoms: C_7  and  O_9
REMARK                            x       y       z     vdW  Elec       q    Type
REMARK                         _______ _______ _______ _____ _____    ______ ____
ROOT
ATOM      1  C   UNL     1      -6.148   9.734  11.098  0.00  0.00    +0.000 C 
ATOM      2  C   UNL     1      -5.115   9.748  12.243  0.00  0.00    +0.000 C 
ATOM      3  C   UNL     1      -5.180   8.421  13.001  0.00  0.00    +0.000 C 
ATOM      4  C   UNL     1      -6.616   8.107  13.444  0.00  0.00    +0.000 C 
ATOM      5  C   UNL     1      -7.577   8.183  12.249  0.00  0.00    +0.000 C 
ATOM      6  O   UNL     1      -7.461   9.422  11.542  0.00  0.00    +0.000 OA
ENDROOT
BRANCH   5   7
ATOM      7  C   UNL     1      -9.000   8.062  12.785  0.00  0.00    +0.000 C 
ATOM      8  O   UNL     1      -9.419   7.251  13.594  0.00  0.00    +0.000 OA
BRANCH   7   9
ATOM      9  O   UNL     1      -9.842   8.982  12.261  0.00  0.00    +0.000 OA
ATOM     10  H   UNL     1      -9.995   8.663  11.349  0.00  0.00    +0.000 HD
ENDBRANCH   7   9
ENDBRANCH   5   7
BRANCH   4  11
ATOM     11  O   UNL     1      -6.619   6.803  14.043  0.00  0.00    +0.000 OA
ATOM     12  H   UNL     1      -6.577   6.164  13.303  0.00  0.00    +0.000 HD
ENDBRANCH   4  11
BRANCH   3  13
ATOM     13  O   UNL     1      -4.688   7.324  12.207  0.00  0.00    +0.000 OA
ATOM     14  H   UNL     1      -5.091   6.497  12.555  0.00  0.00    +0.000 HD
ENDBRANCH   3  13
BRANCH   2  15
ATOM     15  O   UNL     1      -5.360  10.846  13.125  0.00  0.00    +0.000 OA
ATOM     16  H   UNL     1      -4.504  11.129  13.495  0.00  0.00    +0.000 HD
ENDBRANCH   2  15
BRANCH   1  17
ATOM     17  O   UNL     1      -5.738   8.792  10.110  0.00  0.00    +0.000 OA
ATOM     18  H   UNL     1      -6.026   9.170   9.259  0.00  0.00    +0.000 HD
ENDBRANCH   1  17
TORSDOF 6
ENDMDL
MODEL 7
REMARK VINA RESULT:    -4.319      1.279      2.677
REMARK INTER + INTRA:          -5.488
REMARK INTER:                  -5.268
REMARK INTRA:                  -0.220
REMARK UNBOUND:                -0.285
REMARK  Name = 
REMARK  6 active torsions:
REMARK  status: ('A' for Active; 'I' for Inactive)
REMARK    1  A    between atoms: C_1  and  O_13
REMARK    2  A    between atoms: C_2  and  O_12
REMARK    3  A    between atoms: C_3  and  O_11
REMARK    4  A    between atoms: C_4  and  O_10
REMARK    5  A    between atoms: C_5  and  C_7
REMARK    6  A    between atoms: C_7  and  O_9
REMARK                            x       y       z     vdW  Elec       q    Type
REMARK                         _______ _______ _______ _____ _____    ______ ____
ROOT
ATOM      1  C   UNL     1      -6.680   7.717  10.399  0.00  0.00    +0.000 C 
ATOM      2  C   UNL     1      -6.029   9.112  10.311  0.00  0.00    +0.000 C 
ATOM      3  C   UNL     1      -5.402   9.465  11.661  0.00  0.00    +0.000 C 
ATOM      4  C   UNL     1      -6.418   9.308  12.801  0.00  0.00    +0.000 C 
ATOM      5  C   UNL     1      -7.059   7.913  12.763  0.00  0.00    +0.000 C 
ATOM      6  O   UNL     1      -7.601   7.603  11.475  0.00  0.00    +0.000 OA
ENDROOT
BRANCH   5   7
ATOM      7  C   UNL     1      -8.192   7.892  13.784  0.00  0.00    +0.000 C 
ATOM      8  O   UNL     1      -8.122   7.574  14.960  0.00  0.00    +0.000 OA
BRANCH   7   9
ATOM      9  O   UNL     1      -9.380   8.273  13.263  0.00  0.00    +0.000 OA
ATOM     10  H   UNL     1      -9.731   8.904  13.923  0.00  0.00    +0.000 HD
ENDBRANCH   7   9
ENDBRANCH   5   7
BRANCH   4  11
ATOM     11  O   UNL     1      -5.733   9.543  14.039  0.00  0.00    +0.000 OA
ATOM     12  H   UNL     1      -6.360  10.035  14.608  0.00  0.00    +0.000 HD
ENDBRANCH   4  11
BRANCH   3  13
ATOM     13  O   UNL     1      -4.251   8.647  11.949  0.00  0.00    +0.000 OA
ATOM     14  H   UNL     1      -4.549   7.896  12.509  0.00  0.00    +0.000 HD
ENDBRANCH   3  13
BRANCH   2  15
ATOM     15  O   UNL     1      -6.997  10.093   9.931  0.00  0.00    +0.000 OA
ATOM     16  H   UNL     1      -7.879   9.745  10.152  0.00  0.00    +0.000 HD
ENDBRANCH   2  15
BRANCH   1  17
ATOM     17  O   UNL     1      -5.659   6.732  10.533  0.00  0.00    +0.000 OA
ATOM     18  H   UNL     1      -5.697   6.209   9.712  0.00  0.00    +0.000 HD
ENDBRANCH   1  17
TORSDOF 6
ENDMDL
MODEL 8
REMARK VINA RESULT:    -4.292      2.048      4.484
REMARK INTER + INTRA:          -5.456
REMARK INTER:                  -5.178
REMARK INTRA:                  -0.278
REMARK UNBOUND:                -0.285
REMARK  Name = 
REMARK  6 active torsions:
REMARK  status: ('A' for Active; 'I' for Inactive)
REMARK    1  A    between atoms: C_1  and  O_13
REMARK    2  A    between atoms: C_2  and  O_12
REMARK    3  A    between atoms: C_3  and  O_11
REMARK    4  A    between atoms: C_4  and  O_10
REMARK    5  A    between atoms: C_5  and  C_7
REMARK    6  A    between atoms: C_7  and  O_9
REMARK                            x       y       z     vdW  Elec       q    Type
REMARK                         _______ _______ _______ _____ _____    ______ ____
ROOT
ATOM      1  C   UNL     1      -6.914  10.097  11.495  0.00  0.00    +0.000 C 
ATOM      2  C   UNL     1      -7.781   8.895  11.920  0.00  0.00    +0.000 C 
ATOM      3  C   UNL     1      -7.063   7.596  11.549  0.00  0.00    +0.000 C 
ATOM      4  C   UNL     1      -6.653   7.593  10.070  0.00  0.00    +0.000 C 
ATOM      5  C   UNL     1      -5.853   8.859   9.730  0.00  0.00    +0.000 C 
ATOM      6  O   UNL     1      -6.539  10.052  10.125  0.00  0.00    +0.000 OA
ENDROOT
BRANCH   5   7
ATOM      7  C   UNL     1      -5.653   8.893   8.218  0.00  0.00    +0.000 C 
ATOM      8  O   UNL     1      -5.400   7.952   7.484  0.00  0.00    +0.000 OA
BRANCH   7   9
ATOM      9  O   UNL     1      -5.777  10.135   7.697  0.00  0.00    +0.000 OA
ATOM     10  H   UNL     1      -6.743  10.243   7.583  0.00  0.00    +0.000 HD
ENDBRANCH   7   9
ENDBRANCH   5   7
BRANCH   4  11
ATOM     11  O   UNL     1      -5.890   6.403   9.824  0.00  0.00    +0.000 OA
ATOM     12  H   UNL     1      -5.804   5.951  10.689  0.00  0.00    +0.000 HD
ENDBRANCH   4  11
BRANCH   3  13
ATOM     13  O   UNL     1      -5.889   7.381  12.356  0.00  0.00    +0.000 OA
ATOM     14  H   UNL     1      -5.149   7.143  11.754  0.00  0.00    +0.000 HD
ENDBRANCH   3  13
BRANCH   2  15
ATOM     15  O   UNL     1      -9.065   8.958  11.296  0.00  0.00    +0.000 OA
ATOM     16  H   UNL     1      -9.483   8.082  11.381  0.00  0.00    +0.000 HD
ENDBRANCH   2  15
BRANCH   1  17
ATOM     17  O   UNL     1      -5.746  10.144  12.312  0.00  0.00    +0.000 OA
ATOM     18  H   UNL     1      -5.541  11.091  12.413  0.00  0.00    +0.000 HD
ENDBRANCH   1  17
TORSDOF 6
ENDMDL
MODEL 9
REMARK VINA RESULT:    -4.184      1.521      4.255
REMARK INTER + INTRA:          -5.325
REMARK INTER:                  -5.040
REMARK INTRA:                  -0.285
REMARK UNBOUND:                -0.285
REMARK  Name = 
REMARK  6 active torsions:
REMARK  status: ('A' for Active; 'I' for Inactive)
REMARK    1  A    between atoms: C_1  and  O_13
REMARK    2  A    between atoms: C_2  and  O_12
REMARK    3  A    between atoms: C_3  and  O_11
REMARK    4  A    between atoms: C_4  and  O_10
REMARK    5  A    between atoms: C_5  and  C_7
REMARK    6  A    between atoms: C_7  and  O_9
REMARK                            x       y       z     vdW  Elec       q    Type
REMARK                         _______ _______ _______ _____ _____    ______ ____
ROOT
ATOM      1  C   UNL     1      -7.137   8.756  11.508  0.00  0.00    +0.000 C 
ATOM      2  C   UNL     1      -7.034   8.781  13.046  0.00  0.00    +0.000 C 
ATOM      3  C   UNL     1      -5.606   9.152  13.452  0.00  0.00    +0.000 C 
ATOM      4  C   UNL     1      -4.581   8.243  12.760  0.00  0.00    +0.000 C 
ATOM      5  C   UNL     1      -4.808   8.233  11.242  0.00  0.00    +0.000 C 
ATOM      6  O   UNL     1      -6.162   7.919  10.901  0.00  0.00    +0.000 OA
ENDROOT
BRANCH   5   7
ATOM      7  C   UNL     1      -3.897   7.166  10.640  0.00  0.00    +0.000 C 
ATOM      8  O   UNL     1      -2.687   7.074  10.760  0.00  0.00    +0.000 OA
BRANCH   7   9
ATOM      9  O   UNL     1      -4.569   6.256   9.899  0.00  0.00    +0.000 OA
ATOM     10  H   UNL     1      -4.244   6.412   8.989  0.00  0.00    +0.000 HD
ENDBRANCH   7   9
ENDBRANCH   5   7
BRANCH   4  11
ATOM     11  O   UNL     1      -3.269   8.720  13.096  0.00  0.00    +0.000 OA
ATOM     12  H   UNL     1      -3.344   9.118  13.987  0.00  0.00    +0.000 HD
ENDBRANCH   4  11
BRANCH   3  13
ATOM     13  O   UNL     1      -5.297  10.524  13.138  0.00  0.00    +0.000 OA
ATOM     14  H   UNL     1      -4.334  10.656  13.283  0.00  0.00    +0.000 HD
ENDBRANCH   3  13
BRANCH   2  15
ATOM     15  O   UNL     1      -7.401   7.513  13.594  0.00  0.00    +0.000 OA
ATOM     16  H   UNL     1      -6.850   7.356  14.382  0.00  0.00    +0.000 HD
ENDBRANCH   2  15
BRANCH   1  17
ATOM     17  O   UNL     1      -7.009  10.085  11.009  0.00  0.00    +0.000 OA
ATOM     18  H   UNL     1      -6.628   9.989  10.116  0.00  0.00    +0.000 HD
ENDBRANCH   1  17
TORSDOF 6
ENDMDL
