REMARK  Name = 
REMARK  6 active torsions:
REMARK  status: ('A' for Active; 'I' for Inactive)
REMARK    1  A    between atoms: C_1  and  O_13
REMARK    2  A    between atoms: C_2  and  O_12
REMARK    3  A    between atoms: C_3  and  O_11
REMARK    4  A    between atoms: C_4  and  O_10
REMARK    5  A    between atoms: C_5  and  C_7
REMARK    6  A    between atoms: C_7  and  O_9
REMARK                            x       y       z     vdW  Elec       q    Type
REMARK                         _______ _______ _______ _____ _____    ______ ____
ROOT
ATOM      1  C   UNL     1       0.693   1.171  -0.254  0.00  0.00    +0.000 C 
ATOM      2  C   UNL     1       1.412  -0.094   0.256  0.00  0.00    +0.000 C 
ATOM      3  C   UNL     1       0.642  -1.334  -0.202  0.00  0.00    +0.000 C 
ATOM      4  C   UNL     1      -0.839  -1.242   0.190  0.00  0.00    +0.000 C 
ATOM      5  C   UNL     1      -1.446   0.079  -0.304  0.00  0.00    +0.000 C 
ATOM      6  O   UNL     1      -0.679   1.214   0.112  0.00  0.00    +0.000 OA
ENDROOT
BRANCH   5   7
ATOM      7  C   UNL     1      -2.848   0.199   0.286  0.00  0.00    +0.000 C 
ATOM      8  O   UNL     1      -3.158   0.683   1.362  0.00  0.00    +0.000 OA
BRANCH   7   9
ATOM      9  O   UNL     1      -3.806  -0.311  -0.521  0.00  0.00    +0.000 OA
ATOM     10  H   UNL     1      -4.626  -0.216   0.004  0.00  0.00    +0.000 HD
ENDBRANCH   7   9
ENDBRANCH   5   7
BRANCH   4  11
ATOM     11  O   UNL     1      -1.516  -2.377  -0.369  0.00  0.00    +0.000 OA
ATOM     12  H   UNL     1      -1.098  -2.542  -1.239  0.00  0.00    +0.000 HD
ENDBRANCH   4  11
BRANCH   3  13
ATOM     13  O   UNL     1       0.734  -1.527  -1.627  0.00  0.00    +0.000 OA
ATOM     14  H   UNL     1       0.723  -0.640  -2.052  0.00  0.00    +0.000 HD
ENDBRANCH   3  13
BRANCH   2  15
ATOM     15  O   UNL     1       1.523  -0.067   1.681  0.00  0.00    +0.000 OA
ATOM     16  H   UNL     1       2.039  -0.846   1.956  0.00  0.00    +0.000 HD
ENDBRANCH   2  15
BRANCH   1  17
ATOM     17  O   UNL     1       0.815   1.238  -1.673  0.00  0.00    +0.000 OA
ATOM     18  H   UNL     1       0.940   2.183  -1.876  0.00  0.00    +0.000 HD
ENDBRANCH   1  17
TORSDOF 6
