
     RDKit          3D

 45 46  0  0  0  0  0  0  0  0999 V2000
   -2.2543    1.8895    2.3185 C   0  0  0  0  0  0  0  0  0  0  0  0
   -2.2021    1.1462    0.9803 C   0  0  2  0  0  0  0  0  0  0  0  0
   -3.4518    0.2568    0.7676 C   0  0  2  0  0  0  0  0  0  0  0  0
   -3.1594   -1.2014    1.1400 C   0  0  1  0  0  0  0  0  0  0  0  0
   -1.9806   -1.7313    0.3001 C   0  0  2  0  0  0  0  0  0  0  0  0
   -0.9821   -0.6018   -0.0729 C   0  0  1  0  0  0  0  0  0  0  0  0
   -0.9630    0.4091    0.9344 O   0  0  0  0  0  0  0  0  0  0  0  0
    0.3173   -1.1915   -0.2216 O   0  0  0  0  0  0  0  0  0  0  0  0
    1.3354   -0.2623   -0.6128 C   0  0  2  0  0  0  0  0  0  0  0  0
    2.3050   -0.9070   -1.6085 C   0  0  2  0  0  0  0  0  0  0  0  0
    3.3007    0.0297   -2.0671 O   0  0  0  0  0  0  0  0  0  0  0  0
    3.7796    0.9476   -1.0822 C   0  0  2  0  0  0  0  0  0  0  0  0
    3.6022    0.4542    0.3689 C   0  0  1  0  0  0  0  0  0  0  0  0
    2.1107    0.2019    0.6430 C   0  0  1  0  0  0  0  0  0  0  0  0
    1.5206    1.4372    1.0951 O   0  0  0  0  0  0  0  0  0  0  0  0
    4.3426   -0.7486    0.6061 O   0  0  0  0  0  0  0  0  0  0  0  0
    3.1649    2.2157   -1.2846 O   0  0  0  0  0  0  0  0  0  0  0  0
    1.5769   -1.4203   -2.8566 C   0  0  0  0  0  0  0  0  0  0  0  0
    2.5265   -1.9643   -3.7785 O   0  0  0  0  0  0  0  0  0  0  0  0
   -2.4862   -2.3487   -0.8988 O   0  0  0  0  0  0  0  0  0  0  0  0
   -2.8948   -1.3085    2.5401 O   0  0  0  0  0  0  0  0  0  0  0  0
   -3.8165    0.2769   -0.6276 O   0  0  0  0  0  0  0  0  0  0  0  0
   -3.3502    2.7975    2.3299 O   0  0  0  0  0  0  0  0  0  0  0  0
   -1.3296    2.4580    2.4670 H   0  0  0  0  0  0  0  0  0  0  0  0
   -2.3511    1.1989    3.1610 H   0  0  0  0  0  0  0  0  0  0  0  0
   -2.1613    1.8934    0.1781 H   0  0  0  0  0  0  0  0  0  0  0  0
   -4.3101    0.6332    1.3321 H   0  0  0  0  0  0  0  0  0  0  0  0
   -4.0526   -1.8049    0.9297 H   0  0  0  0  0  0  0  0  0  0  0  0
   -1.4568   -2.5201    0.8522 H   0  0  0  0  0  0  0  0  0  0  0  0
   -1.2485   -0.1604   -1.0420 H   0  0  0  0  0  0  0  0  0  0  0  0
    0.8728    0.6075   -1.1014 H   0  0  0  0  0  0  0  0  0  0  0  0
    2.8255   -1.7619   -1.1608 H   0  0  0  0  0  0  0  0  0  0  0  0
    4.8448    1.0783   -1.2912 H   0  0  0  0  0  0  0  0  0  0  0  0
    3.9767    1.2152    1.0642 H   0  0  0  0  0  0  0  0  0  0  0  0
    1.9973   -0.5216    1.4606 H   0  0  0  0  0  0  0  0  0  0  0  0
    0.5980    1.1928    1.3349 H   0  0  0  0  0  0  0  0  0  0  0  0
    5.2781   -0.5670    0.4056 H   0  0  0  0  0  0  0  0  0  0  0  0
    2.4984    2.3467   -0.5839 H   0  0  0  0  0  0  0  0  0  0  0  0
    1.0584   -0.6048   -3.3699 H   0  0  0  0  0  0  0  0  0  0  0  0
    0.8511   -2.2011   -2.6130 H   0  0  0  0  0  0  0  0  0  0  0  0
    3.2539   -1.3136   -3.8099 H   0  0  0  0  0  0  0  0  0  0  0  0
   -3.0553   -1.6829   -1.3372 H   0  0  0  0  0  0  0  0  0  0  0  0
   -2.8700   -2.2610    2.7504 H   0  0  0  0  0  0  0  0  0  0  0  0
   -4.2353    1.1443   -0.7893 H   0  0  0  0  0  0  0  0  0  0  0  0
   -3.3257    3.2544    3.1907 H   0  0  0  0  0  0  0  0  0  0  0  0
  1  2  1  0
  2  3  1  0
  3  4  1  0
  4  5  1  0
  5  6  1  0
  6  7  1  0
  6  8  1  0
  8  9  1  0
  9 10  1  0
 10 11  1  0
 11 12  1  0
 12 13  1  0
 13 14  1  0
 14 15  1  0
 13 16  1  0
 12 17  1  0
 10 18  1  0
 18 19  1  0
  5 20  1  0
  4 21  1  0
  3 22  1  0
  1 23  1  0
  7  2  1  0
 14  9  1  0
  1 24  1  0
  1 25  1  0
  2 26  1  6
  3 27  1  1
  4 28  1  1
  5 29  1  1
  6 30  1  6
  9 31  1  6
 10 32  1  1
 12 33  1  6
 13 34  1  1
 14 35  1  1
 15 36  1  0
 16 37  1  0
 17 38  1  0
 18 39  1  0
 18 40  1  0
 19 41  1  0
 20 42  1  0
 21 43  1  0
 22 44  1  0
 23 45  1  0
M  END
$$$$
