MODEL 1
REMARK VINA RESULT:    -5.712      0.000      0.000
REMARK INTER + INTRA:          -9.586
REMARK INTER:                  -8.027
REMARK INTRA:                  -1.559
REMARK UNBOUND:                -1.202
REMARK  Name = 
REMARK  12 active torsions:
REMARK  status: ('A' for Active; 'I' for Inactive)
REMARK    1  A    between atoms: C_1  and  C_2
REMARK    2  A    between atoms: C_1  and  O_23
REMARK    3  A    between atoms: C_3  and  O_22
REMARK    4  A    between atoms: C_4  and  O_21
REMARK    5  A    between atoms: C_5  and  O_20
REMARK    6  A    between atoms: C_6  and  O_8
REMARK    7  A    between atoms: O_8  and  C_9
REMARK    8  A    between atoms: C_10  and  C_18
REMARK    9  A    between atoms: C_12  and  O_17
REMARK   10  A    between atoms: C_13  and  O_16
REMARK   11  A    between atoms: C_14  and  O_15
REMARK   12  A    between atoms: C_18  and  O_19
REMARK                            x       y       z     vdW  Elec       q    Type
REMARK                         _______ _______ _______ _____ _____    ______ ____
ROOT
ATOM      1  O   UNL     1      -5.008   9.042  10.959  0.00  0.00    +0.000 OA
ENDROOT
BRANCH   1   6
ATOM      2  C   UNL     1      -3.984   6.496   8.612  0.00  0.00    +0.000 C 
ATOM      3  C   UNL     1      -3.931   7.253   7.280  0.00  0.00    +0.000 C 
ATOM      4  C   UNL     1      -5.021   8.337   7.250  0.00  0.00    +0.000 C 
ATOM      5  C   UNL     1      -4.980   9.226   8.511  0.00  0.00    +0.000 C 
ATOM      6  C   UNL     1      -5.066   8.294   9.745  0.00  0.00    +0.000 C 
ATOM      7  O   UNL     1      -3.962   7.407   9.705  0.00  0.00    +0.000 OA
BRANCH   5   8
ATOM      8  O   UNL     1      -6.024  10.199   8.451  0.00  0.00    +0.000 OA
ATOM      9  H   UNL     1      -6.509  10.102   7.612  0.00  0.00    +0.000 HD
ENDBRANCH   5   8
BRANCH   4  10
ATOM     10  O   UNL     1      -4.890   9.095   6.040  0.00  0.00    +0.000 OA
ATOM     11  H   UNL     1      -5.777   9.386   5.762  0.00  0.00    +0.000 HD
ENDBRANCH   4  10
BRANCH   3  12
ATOM     12  O   UNL     1      -4.092   6.313   6.214  0.00  0.00    +0.000 OA
ATOM     13  H   UNL     1      -3.927   6.784   5.370  0.00  0.00    +0.000 HD
ENDBRANCH   3  12
BRANCH   2  14
ATOM     14  C   UNL     1      -2.786   5.541   8.768  0.00  0.00    +0.000 C 
BRANCH  14  15
ATOM     15  O   UNL     1      -2.869   4.437   7.880  0.00  0.00    +0.000 OA
ATOM     16  H   UNL     1      -3.815   4.176   7.834  0.00  0.00    +0.000 HD
ENDBRANCH  14  15
ENDBRANCH   2  14
ENDBRANCH   1   6
BRANCH   1  17
ATOM     17  C   UNL     1      -6.058   8.803  11.920  0.00  0.00    +0.000 C 
ATOM     18  C   UNL     1      -5.924   7.459  12.680  0.00  0.00    +0.000 C 
ATOM     19  O   UNL     1      -6.973   7.303  13.659  0.00  0.00    +0.000 OA
ATOM     20  C   UNL     1      -8.250   7.259  13.032  0.00  0.00    +0.000 C 
ATOM     21  C   UNL     1      -8.557   8.620  12.383  0.00  0.00    +0.000 C 
ATOM     22  C   UNL     1      -7.482   8.946  11.339  0.00  0.00    +0.000 C 
BRANCH  22  23
ATOM     23  O   UNL     1      -7.693  10.276  10.843  0.00  0.00    +0.000 OA
ATOM     24  H   UNL     1      -6.848  10.756  10.961  0.00  0.00    +0.000 HD
ENDBRANCH  22  23
BRANCH  21  25
ATOM     25  O   UNL     1      -9.841   8.670  11.742  0.00  0.00    +0.000 OA
ATOM     26  H   UNL     1     -10.524   8.429  12.394  0.00  0.00    +0.000 HD
ENDBRANCH  21  25
BRANCH  20  27
ATOM     27  O   UNL     1      -9.225   6.912  14.000  0.00  0.00    +0.000 OA
ATOM     28  H   UNL     1      -8.920   7.263  14.855  0.00  0.00    +0.000 HD
ENDBRANCH  20  27
BRANCH  18  29
ATOM     29  C   UNL     1      -4.572   7.354  13.393  0.00  0.00    +0.000 C 
BRANCH  29  30
ATOM     30  O   UNL     1      -3.559   7.006  12.445  0.00  0.00    +0.000 OA
ATOM     31  H   UNL     1      -3.373   6.057  12.583  0.00  0.00    +0.000 HD
ENDBRANCH  29  30
ENDBRANCH  18  29
ENDBRANCH   1  17
TORSDOF 12
ENDMDL
MODEL 2
REMARK VINA RESULT:    -5.655      2.064      6.281
REMARK INTER + INTRA:          -9.502
REMARK INTER:                  -7.941
REMARK INTRA:                  -1.562
REMARK UNBOUND:                -1.202
REMARK  Name = 
REMARK  12 active torsions:
REMARK  status: ('A' for Active; 'I' for Inactive)
REMARK    1  A    between atoms: C_1  and  C_2
REMARK    2  A    between atoms: C_1  and  O_23
REMARK    3  A    between atoms: C_3  and  O_22
REMARK    4  A    between atoms: C_4  and  O_21
REMARK    5  A    between atoms: C_5  and  O_20
REMARK    6  A    between atoms: C_6  and  O_8
REMARK    7  A    between atoms: O_8  and  C_9
REMARK    8  A    between atoms: C_10  and  C_18
REMARK    9  A    between atoms: C_12  and  O_17
REMARK   10  A    between atoms: C_13  and  O_16
REMARK   11  A    between atoms: C_14  and  O_15
REMARK   12  A    between atoms: C_18  and  O_19
REMARK                            x       y       z     vdW  Elec       q    Type
REMARK                         _______ _______ _______ _____ _____    ______ ____
ROOT
ATOM      1  O   UNL     1      -5.455   7.757   8.268  0.00  0.00    +0.000 OA
ENDROOT
BRANCH   1   6
ATOM      2  C   UNL     1      -4.329   8.401  11.639  0.00  0.00    +0.000 C 
ATOM      3  C   UNL     1      -5.494   9.191  12.248  0.00  0.00    +0.000 C 
ATOM      4  C   UNL     1      -6.152  10.068  11.171  0.00  0.00    +0.000 C 
ATOM      5  C   UNL     1      -6.502   9.257   9.906  0.00  0.00    +0.000 C 
ATOM      6  C   UNL     1      -5.208   8.553   9.427  0.00  0.00    +0.000 C 
ATOM      7  O   UNL     1      -4.754   7.709  10.470  0.00  0.00    +0.000 OA
BRANCH   5   8
ATOM      8  O   UNL     1      -7.085  10.117   8.925  0.00  0.00    +0.000 OA
ATOM      9  H   UNL     1      -8.041   9.941   8.868  0.00  0.00    +0.000 HD
ENDBRANCH   5   8
BRANCH   4  10
ATOM     10  O   UNL     1      -7.296  10.721  11.738  0.00  0.00    +0.000 OA
ATOM     11  H   UNL     1      -8.090  10.420  11.261  0.00  0.00    +0.000 HD
ENDBRANCH   4  10
BRANCH   3  12
ATOM     12  O   UNL     1      -4.994   9.976  13.335  0.00  0.00    +0.000 OA
ATOM     13  H   UNL     1      -4.949   9.399  14.126  0.00  0.00    +0.000 HD
ENDBRANCH   3  12
BRANCH   2  14
ATOM     14  C   UNL     1      -3.772   7.362  12.628  0.00  0.00    +0.000 C 
BRANCH  14  15
ATOM     15  O   UNL     1      -2.757   7.908  13.456  0.00  0.00    +0.000 OA
ATOM     16  H   UNL     1      -2.878   7.521  14.351  0.00  0.00    +0.000 HD
ENDBRANCH  14  15
ENDBRANCH   2  14
ENDBRANCH   1   6
BRANCH   1  17
ATOM     17  C   UNL     1      -4.504   7.870   7.189  0.00  0.00    +0.000 C 
ATOM     18  C   UNL     1      -3.237   6.995   7.368  0.00  0.00    +0.000 C 
ATOM     19  O   UNL     1      -2.352   7.113   6.234  0.00  0.00    +0.000 OA
ATOM     20  C   UNL     1      -1.876   8.448   6.099  0.00  0.00    +0.000 C 
ATOM     21  C   UNL     1      -3.046   9.384   5.749  0.00  0.00    +0.000 C 
ATOM     22  C   UNL     1      -4.103   9.325   6.858  0.00  0.00    +0.000 C 
BRANCH  22  23
ATOM     23  O   UNL     1      -5.253  10.085   6.457  0.00  0.00    +0.000 OA
ATOM     24  H   UNL     1      -6.021   9.698   6.923  0.00  0.00    +0.000 HD
ENDBRANCH  22  23
BRANCH  21  25
ATOM     25  O   UNL     1      -2.649  10.754   5.574  0.00  0.00    +0.000 OA
ATOM     26  H   UNL     1      -2.749  11.218   6.425  0.00  0.00    +0.000 HD
ENDBRANCH  21  25
BRANCH  20  27
ATOM     27  O   UNL     1      -0.868   8.479   5.104  0.00  0.00    +0.000 OA
ATOM     28  H   UNL     1      -1.099   9.192   4.482  0.00  0.00    +0.000 HD
ENDBRANCH  20  27
BRANCH  18  29
ATOM     29  C   UNL     1      -3.601   5.518   7.550  0.00  0.00    +0.000 C 
BRANCH  29  30
ATOM     30  O   UNL     1      -3.974   5.283   8.911  0.00  0.00    +0.000 OA
ATOM     31  H   UNL     1      -4.940   5.419   8.955  0.00  0.00    +0.000 HD
ENDBRANCH  29  30
ENDBRANCH  18  29
ENDBRANCH   1  17
TORSDOF 12
ENDMDL
MODEL 3
REMARK VINA RESULT:    -5.599      2.641      4.416
REMARK INTER + INTRA:          -9.420
REMARK INTER:                  -8.028
REMARK INTRA:                  -1.391
REMARK UNBOUND:                -1.202
REMARK  Name = 
REMARK  12 active torsions:
REMARK  status: ('A' for Active; 'I' for Inactive)
REMARK    1  A    between atoms: C_1  and  C_2
REMARK    2  A    between atoms: C_1  and  O_23
REMARK    3  A    between atoms: C_3  and  O_22
REMARK    4  A    between atoms: C_4  and  O_21
REMARK    5  A    between atoms: C_5  and  O_20
REMARK    6  A    between atoms: C_6  and  O_8
REMARK    7  A    between atoms: O_8  and  C_9
REMARK    8  A    between atoms: C_10  and  C_18
REMARK    9  A    between atoms: C_12  and  O_17
REMARK   10  A    between atoms: C_13  and  O_16
REMARK   11  A    between atoms: C_14  and  O_15
REMARK   12  A    between atoms: C_18  and  O_19
REMARK                            x       y       z     vdW  Elec       q    Type
REMARK                         _______ _______ _______ _____ _____    ______ ____
ROOT
ATOM      1  O   UNL     1      -3.909   8.133   8.026  0.00  0.00    +0.000 OA
ENDROOT
BRANCH   1   6
ATOM      2  C   UNL     1      -3.647  10.400   5.227  0.00  0.00    +0.000 C 
ATOM      3  C   UNL     1      -2.498   9.804   4.405  0.00  0.00    +0.000 C 
ATOM      4  C   UNL     1      -1.462   9.162   5.342  0.00  0.00    +0.000 C 
ATOM      5  C   UNL     1      -2.120   8.192   6.346  0.00  0.00    +0.000 C 
ATOM      6  C   UNL     1      -3.231   8.972   7.092  0.00  0.00    +0.000 C 
ATOM      7  O   UNL     1      -4.166   9.433   6.132  0.00  0.00    +0.000 OA
BRANCH   5   8
ATOM      8  O   UNL     1      -1.125   7.641   7.210  0.00  0.00    +0.000 OA
ATOM      9  H   UNL     1      -1.346   7.854   8.134  0.00  0.00    +0.000 HD
ENDBRANCH   5   8
BRANCH   4  10
ATOM     10  O   UNL     1      -0.449   8.528   4.550  0.00  0.00    +0.000 OA
ATOM     11  H   UNL     1      -0.760   7.636   4.309  0.00  0.00    +0.000 HD
ENDBRANCH   4  10
BRANCH   3  12
ATOM     12  O   UNL     1      -1.919  10.844   3.611  0.00  0.00    +0.000 OA
ATOM     13  H   UNL     1      -2.147  11.701   4.026  0.00  0.00    +0.000 HD
ENDBRANCH   3  12
BRANCH   2  14
ATOM     14  C   UNL     1      -4.802  10.873   4.326  0.00  0.00    +0.000 C 
BRANCH  14  15
ATOM     15  O   UNL     1      -4.631  12.218   3.906  0.00  0.00    +0.000 OA
ATOM     16  H   UNL     1      -5.389  12.433   3.319  0.00  0.00    +0.000 HD
ENDBRANCH  14  15
ENDBRANCH   2  14
ENDBRANCH   1   6
BRANCH   1  17
ATOM     17  C   UNL     1      -4.275   8.730   9.289  0.00  0.00    +0.000 C 
ATOM     18  C   UNL     1      -3.894   7.877  10.525  0.00  0.00    +0.000 C 
ATOM     19  O   UNL     1      -4.239   8.550  11.754  0.00  0.00    +0.000 OA
ATOM     20  C   UNL     1      -5.646   8.747  11.847  0.00  0.00    +0.000 C 
ATOM     21  C   UNL     1      -6.107   9.726  10.753  0.00  0.00    +0.000 C 
ATOM     22  C   UNL     1      -5.757   9.157   9.372  0.00  0.00    +0.000 C 
BRANCH  22  23
ATOM     23  O   UNL     1      -6.057  10.136   8.367  0.00  0.00    +0.000 OA
ATOM     24  H   UNL     1      -5.706  10.989   8.693  0.00  0.00    +0.000 HD
ENDBRANCH  22  23
BRANCH  21  25
ATOM     25  O   UNL     1      -7.517   9.998  10.787  0.00  0.00    +0.000 OA
ATOM     26  H   UNL     1      -7.647  10.960  10.873  0.00  0.00    +0.000 HD
ENDBRANCH  21  25
BRANCH  20  27
ATOM     27  O   UNL     1      -5.958   9.229  13.142  0.00  0.00    +0.000 OA
ATOM     28  H   UNL     1      -5.424  10.029  13.288  0.00  0.00    +0.000 HD
ENDBRANCH  20  27
BRANCH  18  29
ATOM     29  C   UNL     1      -2.395   7.563  10.545  0.00  0.00    +0.000 C 
BRANCH  29  30
ATOM     30  O   UNL     1      -1.666   8.684  10.037  0.00  0.00    +0.000 OA
ATOM     31  H   UNL     1      -0.757   8.595  10.383  0.00  0.00    +0.000 HD
ENDBRANCH  29  30
ENDBRANCH  18  29
ENDBRANCH   1  17
TORSDOF 12
ENDMDL
MODEL 4
REMARK VINA RESULT:    -5.384      2.570      7.286
REMARK INTER + INTRA:          -9.104
REMARK INTER:                  -7.601
REMARK INTRA:                  -1.502
REMARK UNBOUND:                -1.202
REMARK  Name = 
REMARK  12 active torsions:
REMARK  status: ('A' for Active; 'I' for Inactive)
REMARK    1  A    between atoms: C_1  and  C_2
REMARK    2  A    between atoms: C_1  and  O_23
REMARK    3  A    between atoms: C_3  and  O_22
REMARK    4  A    between atoms: C_4  and  O_21
REMARK    5  A    between atoms: C_5  and  O_20
REMARK    6  A    between atoms: C_6  and  O_8
REMARK    7  A    between atoms: O_8  and  C_9
REMARK    8  A    between atoms: C_10  and  C_18
REMARK    9  A    between atoms: C_12  and  O_17
REMARK   10  A    between atoms: C_13  and  O_16
REMARK   11  A    between atoms: C_14  and  O_15
REMARK   12  A    between atoms: C_18  and  O_19
REMARK                            x       y       z     vdW  Elec       q    Type
REMARK                         _______ _______ _______ _____ _____    ______ ____
ROOT
ATOM      1  O   UNL     1      -3.756   7.973   7.914  0.00  0.00    +0.000 OA
ENDROOT
BRANCH   1   6
ATOM      2  C   UNL     1      -3.361   8.343  11.484  0.00  0.00    +0.000 C 
ATOM      3  C   UNL     1      -4.787   8.645  11.961  0.00  0.00    +0.000 C 
ATOM      4  C   UNL     1      -5.535   9.460  10.893  0.00  0.00    +0.000 C 
ATOM      5  C   UNL     1      -5.435   8.806   9.500  0.00  0.00    +0.000 C 
ATOM      6  C   UNL     1      -3.933   8.601   9.183  0.00  0.00    +0.000 C 
ATOM      7  O   UNL     1      -3.382   7.764  10.185  0.00  0.00    +0.000 OA
BRANCH   5   8
ATOM      8  O   UNL     1      -6.120   9.610   8.538  0.00  0.00    +0.000 OA
ATOM      9  H   UNL     1      -7.062   9.670   8.778  0.00  0.00    +0.000 HD
ENDBRANCH   5   8
BRANCH   4  10
ATOM     10  O   UNL     1      -6.891   9.646  11.317  0.00  0.00    +0.000 OA
ATOM     11  H   UNL     1      -7.413   9.949  10.552  0.00  0.00    +0.000 HD
ENDBRANCH   4  10
BRANCH   3  12
ATOM     12  O   UNL     1      -4.712   9.348  13.205  0.00  0.00    +0.000 OA
ATOM     13  H   UNL     1      -4.900   8.708  13.924  0.00  0.00    +0.000 HD
ENDBRANCH   3  12
BRANCH   2  14
ATOM     14  C   UNL     1      -2.644   7.361  12.429  0.00  0.00    +0.000 C 
BRANCH  14  15
ATOM     15  O   UNL     1      -2.244   7.985  13.639  0.00  0.00    +0.000 OA
ATOM     16  H   UNL     1      -2.041   7.267  14.278  0.00  0.00    +0.000 HD
ENDBRANCH  14  15
ENDBRANCH   2  14
ENDBRANCH   1   6
BRANCH   1  17
ATOM     17  C   UNL     1      -2.537   8.279   7.203  0.00  0.00    +0.000 C 
ATOM     18  C   UNL     1      -2.761   8.830   5.772  0.00  0.00    +0.000 C 
ATOM     19  O   UNL     1      -1.510   9.163   5.135  0.00  0.00    +0.000 OA
ATOM     20  C   UNL     1      -0.699   8.004   4.973  0.00  0.00    +0.000 C 
ATOM     21  C   UNL     1      -0.276   7.468   6.352  0.00  0.00    +0.000 C 
ATOM     22  C   UNL     1      -1.523   7.114   7.172  0.00  0.00    +0.000 C 
BRANCH  22  23
ATOM     23  O   UNL     1      -1.127   6.754   8.504  0.00  0.00    +0.000 OA
ATOM     24  H   UNL     1      -0.263   6.302   8.427  0.00  0.00    +0.000 HD
ENDBRANCH  22  23
BRANCH  21  25
ATOM     25  O   UNL     1       0.565   6.306   6.281  0.00  0.00    +0.000 OA
ATOM     26  H   UNL     1       1.006   6.187   7.141  0.00  0.00    +0.000 HD
ENDBRANCH  21  25
BRANCH  20  27
ATOM     27  O   UNL     1       0.424   8.336   4.177  0.00  0.00    +0.000 OA
ATOM     28  H   UNL     1       0.368   7.804   3.363  0.00  0.00    +0.000 HD
ENDBRANCH  20  27
BRANCH  18  29
ATOM     29  C   UNL     1      -3.647  10.080   5.789  0.00  0.00    +0.000 C 
BRANCH  29  30
ATOM     30  O   UNL     1      -5.018   9.692   5.911  0.00  0.00    +0.000 OA
ATOM     31  H   UNL     1      -5.530  10.334   5.382  0.00  0.00    +0.000 HD
ENDBRANCH  29  30
ENDBRANCH  18  29
ENDBRANCH   1  17
TORSDOF 12
ENDMDL
MODEL 5
REMARK VINA RESULT:    -5.333      2.726      5.219
REMARK INTER + INTRA:          -9.030
REMARK INTER:                  -7.434
REMARK INTRA:                  -1.596
REMARK UNBOUND:                -1.202
REMARK  Name = 
REMARK  12 active torsions:
REMARK  status: ('A' for Active; 'I' for Inactive)
REMARK    1  A    between atoms: C_1  and  C_2
REMARK    2  A    between atoms: C_1  and  O_23
REMARK    3  A    between atoms: C_3  and  O_22
REMARK    4  A    between atoms: C_4  and  O_21
REMARK    5  A    between atoms: C_5  and  O_20
REMARK    6  A    between atoms: C_6  and  O_8
REMARK    7  A    between atoms: O_8  and  C_9
REMARK    8  A    between atoms: C_10  and  C_18
REMARK    9  A    between atoms: C_12  and  O_17
REMARK   10  A    between atoms: C_13  and  O_16
REMARK   11  A    between atoms: C_14  and  O_15
REMARK   12  A    between atoms: C_18  and  O_19
REMARK                            x       y       z     vdW  Elec       q    Type
REMARK                         _______ _______ _______ _____ _____    ______ ____
ROOT
ATOM      1  O   UNL     1      -5.382   7.145   7.899  0.00  0.00    +0.000 OA
ENDROOT
BRANCH   1   6
ATOM      2  C   UNL     1      -4.130   9.322   5.303  0.00  0.00    +0.000 C 
ATOM      3  C   UNL     1      -3.937   8.370   4.116  0.00  0.00    +0.000 C 
ATOM      4  C   UNL     1      -3.515   6.981   4.622  0.00  0.00    +0.000 C 
ATOM      5  C   UNL     1      -4.456   6.463   5.729  0.00  0.00    +0.000 C 
ATOM      6  C   UNL     1      -4.507   7.539   6.843  0.00  0.00    +0.000 C 
ATOM      7  O   UNL     1      -4.995   8.741   6.272  0.00  0.00    +0.000 OA
BRANCH   5   8
ATOM      8  O   UNL     1      -4.010   5.185   6.186  0.00  0.00    +0.000 OA
ATOM      9  H   UNL     1      -3.102   5.263   6.528  0.00  0.00    +0.000 HD
ENDBRANCH   5   8
BRANCH   4  10
ATOM     10  O   UNL     1      -3.435   6.084   3.506  0.00  0.00    +0.000 OA
ATOM     11  H   UNL     1      -2.495   5.911   3.317  0.00  0.00    +0.000 HD
ENDBRANCH   4  10
BRANCH   3  12
ATOM     12  O   UNL     1      -2.958   8.931   3.236  0.00  0.00    +0.000 OA
ATOM     13  H   UNL     1      -3.402   9.141   2.388  0.00  0.00    +0.000 HD
ENDBRANCH   3  12
BRANCH   2  14
ATOM     14  C   UNL     1      -4.746  10.661   4.860  0.00  0.00    +0.000 C 
BRANCH  14  15
ATOM     15  O   UNL     1      -3.786  11.512   4.254  0.00  0.00    +0.000 OA
ATOM     16  H   UNL     1      -4.148  11.775   3.379  0.00  0.00    +0.000 HD
ENDBRANCH  14  15
ENDBRANCH   2  14
ENDBRANCH   1   6
BRANCH   1  17
ATOM     17  C   UNL     1      -4.867   7.254   9.243  0.00  0.00    +0.000 C 
ATOM     18  C   UNL     1      -4.734   8.711   9.753  0.00  0.00    +0.000 C 
ATOM     19  O   UNL     1      -4.264   8.749  11.117  0.00  0.00    +0.000 OA
ATOM     20  C   UNL     1      -2.959   8.190  11.219  0.00  0.00    +0.000 C 
ATOM     21  C   UNL     1      -3.010   6.687  10.893  0.00  0.00    +0.000 C 
ATOM     22  C   UNL     1      -3.545   6.487   9.470  0.00  0.00    +0.000 C 
BRANCH  22  23
ATOM     23  O   UNL     1      -3.727   5.085   9.224  0.00  0.00    +0.000 OA
ATOM     24  H   UNL     1      -2.835   4.685   9.210  0.00  0.00    +0.000 HD
ENDBRANCH  22  23
BRANCH  21  25
ATOM     25  O   UNL     1      -1.733   6.036  10.992  0.00  0.00    +0.000 OA
ATOM     26  H   UNL     1      -1.326   6.279  11.843  0.00  0.00    +0.000 HD
ENDBRANCH  21  25
BRANCH  20  27
ATOM     27  O   UNL     1      -2.460   8.422  12.525  0.00  0.00    +0.000 OA
ATOM     28  H   UNL     1      -2.954   9.177  12.892  0.00  0.00    +0.000 HD
ENDBRANCH  20  27
BRANCH  18  29
ATOM     29  C   UNL     1      -6.073   9.452   9.678  0.00  0.00    +0.000 C 
BRANCH  29  30
ATOM     30  O   UNL     1      -6.155  10.165   8.441  0.00  0.00    +0.000 OA
ATOM     31  H   UNL     1      -7.033  10.592   8.432  0.00  0.00    +0.000 HD
ENDBRANCH  29  30
ENDBRANCH  18  29
ENDBRANCH   1  17
TORSDOF 12
ENDMDL
MODEL 6
REMARK VINA RESULT:    -5.304      2.891      5.396
REMARK INTER + INTRA:          -8.988
REMARK INTER:                  -7.353
REMARK INTRA:                  -1.635
REMARK UNBOUND:                -1.202
REMARK  Name = 
REMARK  12 active torsions:
REMARK  status: ('A' for Active; 'I' for Inactive)
REMARK    1  A    between atoms: C_1  and  C_2
REMARK    2  A    between atoms: C_1  and  O_23
REMARK    3  A    between atoms: C_3  and  O_22
REMARK    4  A    between atoms: C_4  and  O_21
REMARK    5  A    between atoms: C_5  and  O_20
REMARK    6  A    between atoms: C_6  and  O_8
REMARK    7  A    between atoms: O_8  and  C_9
REMARK    8  A    between atoms: C_10  and  C_18
REMARK    9  A    between atoms: C_12  and  O_17
REMARK   10  A    between atoms: C_13  and  O_16
REMARK   11  A    between atoms: C_14  and  O_15
REMARK   12  A    between atoms: C_18  and  O_19
REMARK                            x       y       z     vdW  Elec       q    Type
REMARK                         _______ _______ _______ _____ _____    ______ ____
ROOT
ATOM      1  O   UNL     1      -2.117   5.805   7.814  0.00  0.00    +0.000 OA
ENDROOT
BRANCH   1   6
ATOM      2  C   UNL     1      -2.707   7.873   4.913  0.00  0.00    +0.000 C 
ATOM      3  C   UNL     1      -1.291   8.170   4.406  0.00  0.00    +0.000 C 
ATOM      4  C   UNL     1      -0.320   8.272   5.593  0.00  0.00    +0.000 C 
ATOM      5  C   UNL     1      -0.436   7.055   6.535  0.00  0.00    +0.000 C 
ATOM      6  C   UNL     1      -1.921   6.929   6.957  0.00  0.00    +0.000 C 
ATOM      7  O   UNL     1      -2.698   6.750   5.786  0.00  0.00    +0.000 OA
BRANCH   5   8
ATOM      8  O   UNL     1       0.463   7.207   7.634  0.00  0.00    +0.000 OA
ATOM      9  H   UNL     1       0.927   6.365   7.791  0.00  0.00    +0.000 HD
ENDBRANCH   5   8
BRANCH   4  10
ATOM     10  O   UNL     1       1.011   8.453   5.091  0.00  0.00    +0.000 OA
ATOM     11  H   UNL     1       0.984   9.123   4.384  0.00  0.00    +0.000 HD
ENDBRANCH   4  10
BRANCH   3  12
ATOM     12  O   UNL     1      -1.324   9.382   3.645  0.00  0.00    +0.000 OA
ATOM     13  H   UNL     1      -1.172  10.128   4.263  0.00  0.00    +0.000 HD
ENDBRANCH   3  12
BRANCH   2  14
ATOM     14  C   UNL     1      -3.670   7.563   3.753  0.00  0.00    +0.000 C 
BRANCH  14  15
ATOM     15  O   UNL     1      -4.515   6.460   4.045  0.00  0.00    +0.000 OA
ATOM     16  H   UNL     1      -4.187   6.062   4.881  0.00  0.00    +0.000 HD
ENDBRANCH  14  15
ENDBRANCH   2  14
ENDBRANCH   1   6
BRANCH   1  17
ATOM     17  C   UNL     1      -2.810   6.048   9.056  0.00  0.00    +0.000 C 
ATOM     18  C   UNL     1      -4.329   6.309   8.892  0.00  0.00    +0.000 C 
ATOM     19  O   UNL     1      -4.971   6.495  10.171  0.00  0.00    +0.000 OA
ATOM     20  C   UNL     1      -4.458   7.645  10.835  0.00  0.00    +0.000 C 
ATOM     21  C   UNL     1      -2.979   7.418  11.198  0.00  0.00    +0.000 C 
ATOM     22  C   UNL     1      -2.170   7.156   9.922  0.00  0.00    +0.000 C 
BRANCH  22  23
ATOM     23  O   UNL     1      -0.826   6.803  10.279  0.00  0.00    +0.000 OA
ATOM     24  H   UNL     1      -0.441   6.348   9.503  0.00  0.00    +0.000 HD
ENDBRANCH  22  23
BRANCH  21  25
ATOM     25  O   UNL     1      -2.385   8.527  11.892  0.00  0.00    +0.000 OA
ATOM     26  H   UNL     1      -2.483   9.326  11.343  0.00  0.00    +0.000 HD
ENDBRANCH  21  25
BRANCH  20  27
ATOM     27  O   UNL     1      -5.243   7.900  11.986  0.00  0.00    +0.000 OA
ATOM     28  H   UNL     1      -5.740   7.086  12.182  0.00  0.00    +0.000 HD
ENDBRANCH  20  27
BRANCH  18  29
ATOM     29  C   UNL     1      -5.018   5.151   8.164  0.00  0.00    +0.000 C 
BRANCH  29  30
ATOM     30  O   UNL     1      -4.971   5.379   6.753  0.00  0.00    +0.000 OA
ATOM     31  H   UNL     1      -4.364   6.132   6.620  0.00  0.00    +0.000 HD
ENDBRANCH  29  30
ENDBRANCH  18  29
ENDBRANCH   1  17
TORSDOF 12
ENDMDL
MODEL 7
REMARK VINA RESULT:    -5.302      2.477      6.945
REMARK INTER + INTRA:          -8.985
REMARK INTER:                  -7.409
REMARK INTRA:                  -1.575
REMARK UNBOUND:                -1.202
REMARK  Name = 
REMARK  12 active torsions:
REMARK  status: ('A' for Active; 'I' for Inactive)
REMARK    1  A    between atoms: C_1  and  C_2
REMARK    2  A    between atoms: C_1  and  O_23
REMARK    3  A    between atoms: C_3  and  O_22
REMARK    4  A    between atoms: C_4  and  O_21
REMARK    5  A    between atoms: C_5  and  O_20
REMARK    6  A    between atoms: C_6  and  O_8
REMARK    7  A    between atoms: O_8  and  C_9
REMARK    8  A    between atoms: C_10  and  C_18
REMARK    9  A    between atoms: C_12  and  O_17
REMARK   10  A    between atoms: C_13  and  O_16
REMARK   11  A    between atoms: C_14  and  O_15
REMARK   12  A    between atoms: C_18  and  O_19
REMARK                            x       y       z     vdW  Elec       q    Type
REMARK                         _______ _______ _______ _____ _____    ______ ____
ROOT
ATOM      1  O   UNL     1      -4.203   6.948   7.027  0.00  0.00    +0.000 OA
ENDROOT
BRANCH   1   6
ATOM      2  C   UNL     1      -2.885   6.893  10.389  0.00  0.00    +0.000 C 
ATOM      3  C   UNL     1      -4.006   7.543  11.210  0.00  0.00    +0.000 C 
ATOM      4  C   UNL     1      -4.713   8.621  10.372  0.00  0.00    +0.000 C 
ATOM      5  C   UNL     1      -5.141   8.083   8.991  0.00  0.00    +0.000 C 
ATOM      6  C   UNL     1      -3.884   7.492   8.307  0.00  0.00    +0.000 C 
ATOM      7  O   UNL     1      -3.382   6.453   9.130  0.00  0.00    +0.000 OA
BRANCH   5   8
ATOM      8  O   UNL     1      -5.768   9.124   8.240  0.00  0.00    +0.000 OA
ATOM      9  H   UNL     1      -6.350   9.640   8.825  0.00  0.00    +0.000 HD
ENDBRANCH   5   8
BRANCH   4  10
ATOM     10  O   UNL     1      -5.815   9.145  11.124  0.00  0.00    +0.000 OA
ATOM     11  H   UNL     1      -6.198   9.892  10.628  0.00  0.00    +0.000 HD
ENDBRANCH   4  10
BRANCH   3  12
ATOM     12  O   UNL     1      -3.437   8.090  12.404  0.00  0.00    +0.000 OA
ATOM     13  H   UNL     1      -3.668   7.495  13.147  0.00  0.00    +0.000 HD
ENDBRANCH   3  12
BRANCH   2  14
ATOM     14  C   UNL     1      -2.286   5.674  11.113  0.00  0.00    +0.000 C 
BRANCH  14  15
ATOM     15  O   UNL     1      -1.489   6.056  12.224  0.00  0.00    +0.000 OA
ATOM     16  H   UNL     1      -0.551   5.992  11.938  0.00  0.00    +0.000 HD
ENDBRANCH  14  15
ENDBRANCH   2  14
ENDBRANCH   1   6
BRANCH   1  17
ATOM     17  C   UNL     1      -3.332   7.306   5.933  0.00  0.00    +0.000 C 
ATOM     18  C   UNL     1      -2.025   6.475   5.868  0.00  0.00    +0.000 C 
ATOM     19  O   UNL     1      -1.224   6.846   4.726  0.00  0.00    +0.000 OA
ATOM     20  C   UNL     1      -0.807   8.204   4.819  0.00  0.00    +0.000 C 
ATOM     21  C   UNL     1      -2.031   9.131   4.722  0.00  0.00    +0.000 C 
ATOM     22  C   UNL     1      -3.008   8.815   5.860  0.00  0.00    +0.000 C 
BRANCH  22  23
ATOM     23  O   UNL     1      -4.209   9.580   5.680  0.00  0.00    +0.000 OA
ATOM     24  H   UNL     1      -4.289  10.163   6.461  0.00  0.00    +0.000 HD
ENDBRANCH  22  23
BRANCH  21  25
ATOM     25  O   UNL     1      -1.697  10.527   4.787  0.00  0.00    +0.000 OA
ATOM     26  H   UNL     1      -1.946  10.866   5.665  0.00  0.00    +0.000 HD
ENDBRANCH  21  25
BRANCH  20  27
ATOM     27  O   UNL     1       0.130   8.468   3.789  0.00  0.00    +0.000 OA
ATOM     28  H   UNL     1       0.894   7.883   3.938  0.00  0.00    +0.000 HD
ENDBRANCH  20  27
BRANCH  18  29
ATOM     29  C   UNL     1      -2.323   4.974   5.788  0.00  0.00    +0.000 C 
BRANCH  29  30
ATOM     30  O   UNL     1      -2.664   4.486   7.089  0.00  0.00    +0.000 OA
ATOM     31  H   UNL     1      -3.588   4.759   7.247  0.00  0.00    +0.000 HD
ENDBRANCH  29  30
ENDBRANCH  18  29
ENDBRANCH   1  17
TORSDOF 12
ENDMDL
MODEL 8
REMARK VINA RESULT:    -5.294      2.129      3.726
REMARK INTER + INTRA:          -8.972
REMARK INTER:                  -7.591
REMARK INTRA:                  -1.381
REMARK UNBOUND:                -1.202
REMARK  Name = 
REMARK  12 active torsions:
REMARK  status: ('A' for Active; 'I' for Inactive)
REMARK    1  A    between atoms: C_1  and  C_2
REMARK    2  A    between atoms: C_1  and  O_23
REMARK    3  A    between atoms: C_3  and  O_22
REMARK    4  A    between atoms: C_4  and  O_21
REMARK    5  A    between atoms: C_5  and  O_20
REMARK    6  A    between atoms: C_6  and  O_8
REMARK    7  A    between atoms: O_8  and  C_9
REMARK    8  A    between atoms: C_10  and  C_18
REMARK    9  A    between atoms: C_12  and  O_17
REMARK   10  A    between atoms: C_13  and  O_16
REMARK   11  A    between atoms: C_14  and  O_15
REMARK   12  A    between atoms: C_18  and  O_19
REMARK                            x       y       z     vdW  Elec       q    Type
REMARK                         _______ _______ _______ _____ _____    ______ ____
ROOT
ATOM      1  O   UNL     1      -3.317   6.322   9.659  0.00  0.00    +0.000 OA
ENDROOT
BRANCH   1   6
ATOM      2  C   UNL     1      -2.547   8.274   6.720  0.00  0.00    +0.000 C 
ATOM      3  C   UNL     1      -2.903   7.323   5.570  0.00  0.00    +0.000 C 
ATOM      4  C   UNL     1      -2.606   5.871   5.979  0.00  0.00    +0.000 C 
ATOM      5  C   UNL     1      -3.240   5.518   7.341  0.00  0.00    +0.000 C 
ATOM      6  C   UNL     1      -2.751   6.566   8.372  0.00  0.00    +0.000 C 
ATOM      7  O   UNL     1      -3.164   7.846   7.928  0.00  0.00    +0.000 OA
BRANCH   5   8
ATOM      8  O   UNL     1      -2.915   4.172   7.691  0.00  0.00    +0.000 OA
ATOM      9  H   UNL     1      -2.971   3.609   6.899  0.00  0.00    +0.000 HD
ENDBRANCH   5   8
BRANCH   4  10
ATOM     10  O   UNL     1      -3.036   4.995   4.930  0.00  0.00    +0.000 OA
ATOM     11  H   UNL     1      -3.226   5.532   4.139  0.00  0.00    +0.000 HD
ENDBRANCH   4  10
BRANCH   3  12
ATOM     12  O   UNL     1      -2.157   7.709   4.412  0.00  0.00    +0.000 OA
ATOM     13  H   UNL     1      -1.473   7.024   4.253  0.00  0.00    +0.000 HD
ENDBRANCH   3  12
BRANCH   2  14
ATOM     14  C   UNL     1      -3.017   9.711   6.431  0.00  0.00    +0.000 C 
BRANCH  14  15
ATOM     15  O   UNL     1      -2.201  10.351   5.462  0.00  0.00    +0.000 OA
ATOM     16  H   UNL     1      -2.151   9.749   4.687  0.00  0.00    +0.000 HD
ENDBRANCH  14  15
ENDBRANCH   2  14
ENDBRANCH   1   6
BRANCH   1  17
ATOM     17  C   UNL     1      -4.090   7.393  10.242  0.00  0.00    +0.000 C 
ATOM     18  C   UNL     1      -3.642   7.791  11.671  0.00  0.00    +0.000 C 
ATOM     19  O   UNL     1      -4.419   8.898  12.176  0.00  0.00    +0.000 OA
ATOM     20  C   UNL     1      -5.792   8.542  12.293  0.00  0.00    +0.000 C 
ATOM     21  C   UNL     1      -6.384   8.288  10.896  0.00  0.00    +0.000 C 
ATOM     22  C   UNL     1      -5.616   7.152  10.210  0.00  0.00    +0.000 C 
BRANCH  22  23
ATOM     23  O   UNL     1      -6.076   7.018   8.857  0.00  0.00    +0.000 OA
ATOM     24  H   UNL     1      -7.054   7.002   8.895  0.00  0.00    +0.000 HD
ENDBRANCH  22  23
BRANCH  21  25
ATOM     25  O   UNL     1      -7.778   7.941  10.921  0.00  0.00    +0.000 OA
ATOM     26  H   UNL     1      -8.210   8.333  10.140  0.00  0.00    +0.000 HD
ENDBRANCH  21  25
BRANCH  20  27
ATOM     27  O   UNL     1      -6.480   9.580  12.969  0.00  0.00    +0.000 OA
ATOM     28  H   UNL     1      -7.374   9.251  13.167  0.00  0.00    +0.000 HD
ENDBRANCH  20  27
BRANCH  18  29
ATOM     29  C   UNL     1      -2.160   8.181  11.702  0.00  0.00    +0.000 C 
BRANCH  29  30
ATOM     30  O   UNL     1      -1.820   8.860  10.491  0.00  0.00    +0.000 OA
ATOM     31  H   UNL     1      -0.850   8.970  10.505  0.00  0.00    +0.000 HD
ENDBRANCH  29  30
ENDBRANCH  18  29
ENDBRANCH   1  17
TORSDOF 12
ENDMDL
MODEL 9
REMARK VINA RESULT:    -5.214      1.911      3.245
REMARK INTER + INTRA:          -8.855
REMARK INTER:                  -7.653
REMARK INTRA:                  -1.202
REMARK UNBOUND:                -1.202
REMARK  Name = 
REMARK  12 active torsions:
REMARK  status: ('A' for Active; 'I' for Inactive)
REMARK    1  A    between atoms: C_1  and  C_2
REMARK    2  A    between atoms: C_1  and  O_23
REMARK    3  A    between atoms: C_3  and  O_22
REMARK    4  A    between atoms: C_4  and  O_21
REMARK    5  A    between atoms: C_5  and  O_20
REMARK    6  A    between atoms: C_6  and  O_8
REMARK    7  A    between atoms: O_8  and  C_9
REMARK    8  A    between atoms: C_10  and  C_18
REMARK    9  A    between atoms: C_12  and  O_17
REMARK   10  A    between atoms: C_13  and  O_16
REMARK   11  A    between atoms: C_14  and  O_15
REMARK   12  A    between atoms: C_18  and  O_19
REMARK                            x       y       z     vdW  Elec       q    Type
REMARK                         _______ _______ _______ _____ _____    ______ ____
ROOT
ATOM      1  O   UNL     1      -3.994   7.017  10.059  0.00  0.00    +0.000 OA
ENDROOT
BRANCH   1   6
ATOM      2  C   UNL     1      -3.877   9.351   7.306  0.00  0.00    +0.000 C 
ATOM      3  C   UNL     1      -2.797   8.756   6.393  0.00  0.00    +0.000 C 
ATOM      4  C   UNL     1      -1.713   8.072   7.242  0.00  0.00    +0.000 C 
ATOM      5  C   UNL     1      -2.321   7.089   8.264  0.00  0.00    +0.000 C 
ATOM      6  C   UNL     1      -3.364   7.868   9.102  0.00  0.00    +0.000 C 
ATOM      7  O   UNL     1      -4.352   8.369   8.219  0.00  0.00    +0.000 OA
BRANCH   5   8
ATOM      8  O   UNL     1      -1.280   6.499   9.045  0.00  0.00    +0.000 OA
ATOM      9  H   UNL     1      -1.666   6.088   9.839  0.00  0.00    +0.000 HD
ENDBRANCH   5   8
BRANCH   4  10
ATOM     10  O   UNL     1      -0.767   7.441   6.368  0.00  0.00    +0.000 OA
ATOM     11  H   UNL     1       0.130   7.672   6.668  0.00  0.00    +0.000 HD
ENDBRANCH   4  10
BRANCH   3  12
ATOM     12  O   UNL     1      -2.252   9.806   5.588  0.00  0.00    +0.000 OA
ATOM     13  H   UNL     1      -1.309   9.914   5.833  0.00  0.00    +0.000 HD
ENDBRANCH   3  12
BRANCH   2  14
ATOM     14  C   UNL     1      -5.080   9.866   6.496  0.00  0.00    +0.000 C 
BRANCH  14  15
ATOM     15  O   UNL     1      -6.037  10.513   7.321  0.00  0.00    +0.000 OA
ATOM     16  H   UNL     1      -5.658  11.385   7.569  0.00  0.00    +0.000 HD
ENDBRANCH  14  15
ENDBRANCH   2  14
ENDBRANCH   1   6
BRANCH   1  17
ATOM     17  C   UNL     1      -4.822   7.658  11.052  0.00  0.00    +0.000 C 
ATOM     18  C   UNL     1      -4.342   7.444  12.510  0.00  0.00    +0.000 C 
ATOM     19  O   UNL     1      -5.181   8.150  13.448  0.00  0.00    +0.000 OA
ATOM     20  C   UNL     1      -6.514   7.653  13.411  0.00  0.00    +0.000 C 
ATOM     21  C   UNL     1      -7.148   7.969  12.045  0.00  0.00    +0.000 C 
ATOM     22  C   UNL     1      -6.324   7.314  10.930  0.00  0.00    +0.000 C 
BRANCH  22  23
ATOM     23  O   UNL     1      -6.834   7.732   9.656  0.00  0.00    +0.000 OA
ATOM     24  H   UNL     1      -7.585   8.332   9.838  0.00  0.00    +0.000 HD
ENDBRANCH  22  23
BRANCH  21  25
ATOM     25  O   UNL     1      -8.507   7.518  11.927  0.00  0.00    +0.000 OA
ATOM     26  H   UNL     1      -8.976   8.102  11.304  0.00  0.00    +0.000 HD
ENDBRANCH  21  25
BRANCH  20  27
ATOM     27  O   UNL     1      -7.251   8.233  14.473  0.00  0.00    +0.000 OA
ATOM     28  H   UNL     1      -6.607   8.555  15.128  0.00  0.00    +0.000 HD
ENDBRANCH  20  27
BRANCH  18  29
ATOM     29  C   UNL     1      -2.897   7.918  12.696  0.00  0.00    +0.000 C 
BRANCH  29  30
ATOM     30  O   UNL     1      -2.003   6.952  12.135  0.00  0.00    +0.000 OA
ATOM     31  H   UNL     1      -2.531   6.430  11.501  0.00  0.00    +0.000 HD
ENDBRANCH  29  30
ENDBRANCH  18  29
ENDBRANCH   1  17
TORSDOF 12
ENDMDL
