REMARK  Name = 
REMARK  12 active torsions:
REMARK  status: ('A' for Active; 'I' for Inactive)
REMARK    1  A    between atoms: C_1  and  C_2
REMARK    2  A    between atoms: C_1  and  O_23
REMARK    3  A    between atoms: C_3  and  O_22
REMARK    4  A    between atoms: C_4  and  O_21
REMARK    5  A    between atoms: C_5  and  O_20
REMARK    6  A    between atoms: C_6  and  O_8
REMARK    7  A    between atoms: O_8  and  C_9
REMARK    8  A    between atoms: C_10  and  C_18
REMARK    9  A    between atoms: C_12  and  O_17
REMARK   10  A    between atoms: C_13  and  O_16
REMARK   11  A    between atoms: C_14  and  O_15
REMARK   12  A    between atoms: C_18  and  O_19
REMARK                            x       y       z     vdW  Elec       q    Type
REMARK                         _______ _______ _______ _____ _____    ______ ____
ROOT
ATOM      1  O   UNL     1       2.284   1.780  -3.698  0.00  0.00    +0.000 OA
ENDROOT
BRANCH   1   6
ATOM      2  C   UNL     1       2.862   1.078  -0.203  0.00  0.00    +0.000 C 
ATOM      3  C   UNL     1       1.450   0.817   0.336  0.00  0.00    +0.000 C 
ATOM      4  C   UNL     1       0.434   1.699  -0.408  0.00  0.00    +0.000 C 
ATOM      5  C   UNL     1       0.583   1.578  -1.939  0.00  0.00    +0.000 C 
ATOM      6  C   UNL     1       2.057   1.896  -2.294  0.00  0.00    +0.000 C 
ATOM      7  O   UNL     1       2.883   0.962  -1.621  0.00  0.00    +0.000 OA
BRANCH   5   8
ATOM      8  O   UNL     1      -0.361   2.433  -2.586  0.00  0.00    +0.000 OA
ATOM      9  H   UNL     1      -0.223   3.350  -2.290  0.00  0.00    +0.000 HD
ENDBRANCH   5   8
BRANCH   4  10
ATOM     10  O   UNL     1      -0.886   1.369   0.043  0.00  0.00    +0.000 OA
ATOM     11  H   UNL     1      -1.236   0.658  -0.524  0.00  0.00    +0.000 HD
ENDBRANCH   4  10
BRANCH   3  12
ATOM     12  O   UNL     1       1.444   1.077   1.743  0.00  0.00    +0.000 OA
ATOM     13  H   UNL     1       0.730   1.723   1.926  0.00  0.00    +0.000 HD
ENDBRANCH   3  12
BRANCH   2  14
ATOM     14  C   UNL     1       3.880   0.075   0.369  0.00  0.00    +0.000 C 
BRANCH  14  15
ATOM     15  O   UNL     1       4.048   0.230   1.770  0.00  0.00    +0.000 OA
ATOM     16  H   UNL     1       3.149   0.274   2.163  0.00  0.00    +0.000 HD
ENDBRANCH  14  15
ENDBRANCH   2  14
ENDBRANCH   1   6
BRANCH   1  17
ATOM     17  C   UNL     1       3.614   2.086  -4.168  0.00  0.00    +0.000 C 
ATOM     18  C   UNL     1       4.699   1.089  -3.688  0.00  0.00    +0.000 C 
ATOM     19  O   UNL     1       5.994   1.420  -4.232  0.00  0.00    +0.000 OA
ATOM     20  C   UNL     1       6.424   2.698  -3.776  0.00  0.00    +0.000 C 
ATOM     21  C   UNL     1       5.500   3.790  -4.343  0.00  0.00    +0.000 C 
ATOM     22  C   UNL     1       4.060   3.537  -3.881  0.00  0.00    +0.000 C 
BRANCH  22  23
ATOM     23  O   UNL     1       3.184   4.471  -4.529  0.00  0.00    +0.000 OA
ATOM     24  H   UNL     1       3.693   5.298  -4.645  0.00  0.00    +0.000 HD
ENDBRANCH  22  23
BRANCH  21  25
ATOM     25  O   UNL     1       5.876   5.119  -3.947  0.00  0.00    +0.000 OA
ATOM     26  H   UNL     1       6.172   5.095  -3.019  0.00  0.00    +0.000 HD
ENDBRANCH  21  25
BRANCH  20  27
ATOM     27  O   UNL     1       7.770   2.898  -4.171  0.00  0.00    +0.000 OA
ATOM     28  H   UNL     1       7.759   3.159  -5.109  0.00  0.00    +0.000 HD
ENDBRANCH  20  27
BRANCH  18  29
ATOM     29  C   UNL     1       4.353  -0.348  -4.092  0.00  0.00    +0.000 C 
BRANCH  29  30
ATOM     30  O   UNL     1       5.288  -1.250  -3.494  0.00  0.00    +0.000 OA
ATOM     31  H   UNL     1       6.175  -0.916  -3.729  0.00  0.00    +0.000 HD
ENDBRANCH  29  30
ENDBRANCH  18  29
ENDBRANCH   1  17
TORSDOF 12
