MODEL 1
REMARK VINA RESULT:    -7.112      0.000      0.000
REMARK INTER + INTRA:          -8.892
REMARK INTER:                  -8.694
REMARK INTRA:                  -0.198
REMARK UNBOUND:                -0.117
REMARK  Name = 
REMARK  6 active torsions:
REMARK  status: ('A' for Active; 'I' for Inactive)
REMARK    1  A    between atoms: C_3  and  O_13
REMARK    2  A    between atoms: C_4  and  O_12
REMARK    3  A    between atoms: C_6  and  C_7
REMARK    4  A    between atoms: C_8  and  C_9
REMARK    5  A    between atoms: C_9  and  O_11
REMARK    6  A    between atoms: O_13  and  C_14
REMARK                            x       y       z     vdW  Elec       q    Type
REMARK                         _______ _______ _______ _____ _____    ______ ____
ROOT
ATOM      1  C   UNL     1      -1.675  -8.450  -4.636  0.00  0.00    +0.000 A 
ATOM      2  C   UNL     1      -0.987  -9.568  -4.148  0.00  0.00    +0.000 A 
ATOM      3  C   UNL     1      -1.300 -10.870  -4.566  0.00  0.00    +0.000 A 
ATOM      4  C   UNL     1      -2.332 -11.023  -5.494  0.00  0.00    +0.000 A 
ATOM      5  C   UNL     1      -3.025  -9.904  -5.981  0.00  0.00    +0.000 A 
ATOM      6  C   UNL     1      -2.699  -8.606  -5.571  0.00  0.00    +0.000 A 
ENDROOT
BRANCH   6   7
ATOM      7  C   UNL     1      -3.425  -7.417  -6.048  0.00  0.00    +0.000 C 
ATOM      8  C   UNL     1      -3.446  -6.241  -5.397  0.00  0.00    +0.000 C 
BRANCH   8   9
ATOM      9  C   UNL     1      -4.160  -5.047  -5.865  0.00  0.00    +0.000 C 
ATOM     10  O   UNL     1      -5.283  -4.740  -5.510  0.00  0.00    +0.000 OA
BRANCH   9  11
ATOM     11  O   UNL     1      -3.465  -4.297  -6.732  0.00  0.00    +0.000 OA
ATOM     12  H   UNL     1      -2.986  -4.957  -7.275  0.00  0.00    +0.000 HD
ENDBRANCH   9  11
ENDBRANCH   8   9
ENDBRANCH   6   7
BRANCH   4  13
ATOM     13  O   UNL     1      -2.766 -12.205  -6.020  0.00  0.00    +0.000 OA
ATOM     14  H   UNL     1      -3.190 -12.723  -5.325  0.00  0.00    +0.000 HD
ENDBRANCH   4  13
BRANCH   3  15
ATOM     15  O   UNL     1      -0.496 -11.799  -3.974  0.00  0.00    +0.000 OA
ATOM     16  C   UNL     1       0.824 -11.481  -3.581  0.00  0.00    +0.000 C 
ENDBRANCH   3  15
TORSDOF 5
ENDMDL
MODEL 2
REMARK VINA RESULT:    -7.017      2.365      5.928
REMARK INTER + INTRA:          -8.774
REMARK INTER:                  -8.590
REMARK INTRA:                  -0.185
REMARK UNBOUND:                -0.117
REMARK  Name = 
REMARK  6 active torsions:
REMARK  status: ('A' for Active; 'I' for Inactive)
REMARK    1  A    between atoms: C_3  and  O_13
REMARK    2  A    between atoms: C_4  and  O_12
REMARK    3  A    between atoms: C_6  and  C_7
REMARK    4  A    between atoms: C_8  and  C_9
REMARK    5  A    between atoms: C_9  and  O_11
REMARK    6  A    between atoms: O_13  and  C_14
REMARK                            x       y       z     vdW  Elec       q    Type
REMARK                         _______ _______ _______ _____ _____    ______ ____
ROOT
ATOM      1  C   UNL     1      -2.755  -8.858  -5.828  0.00  0.00    +0.000 A 
ATOM      2  C   UNL     1      -3.920  -8.439  -6.483  0.00  0.00    +0.000 A 
ATOM      3  C   UNL     1      -4.427  -7.139  -6.332  0.00  0.00    +0.000 A 
ATOM      4  C   UNL     1      -3.728  -6.263  -5.499  0.00  0.00    +0.000 A 
ATOM      5  C   UNL     1      -2.563  -6.683  -4.840  0.00  0.00    +0.000 A 
ATOM      6  C   UNL     1      -2.054  -7.976  -5.005  0.00  0.00    +0.000 A 
ENDROOT
BRANCH   6   7
ATOM      7  C   UNL     1      -0.847  -8.449  -4.307  0.00  0.00    +0.000 C 
ATOM      8  C   UNL     1       0.070  -7.633  -3.758  0.00  0.00    +0.000 C 
BRANCH   8   9
ATOM      9  C   UNL     1       1.272  -8.092  -3.053  0.00  0.00    +0.000 C 
ATOM     10  O   UNL     1       2.047  -7.354  -2.471  0.00  0.00    +0.000 OA
BRANCH   9  11
ATOM     11  O   UNL     1       1.459  -9.419  -3.094  0.00  0.00    +0.000 OA
ATOM     12  H   UNL     1       0.837  -9.760  -2.419  0.00  0.00    +0.000 HD
ENDBRANCH   9  11
ENDBRANCH   8   9
ENDBRANCH   6   7
BRANCH   4  13
ATOM     13  O   UNL     1      -4.064  -4.965  -5.242  0.00  0.00    +0.000 OA
ATOM     14  H   UNL     1      -3.581  -4.389  -5.846  0.00  0.00    +0.000 HD
ENDBRANCH   4  13
BRANCH   3  15
ATOM     15  O   UNL     1      -5.558  -6.948  -7.070  0.00  0.00    +0.000 OA
ATOM     16  C   UNL     1      -6.827  -6.860  -6.453  0.00  0.00    +0.000 C 
ENDBRANCH   3  15
TORSDOF 5
ENDMDL
MODEL 3
REMARK VINA RESULT:    -6.999      1.268      2.117
REMARK INTER + INTRA:          -8.753
REMARK INTER:                  -8.577
REMARK INTRA:                  -0.176
REMARK UNBOUND:                -0.117
REMARK  Name = 
REMARK  6 active torsions:
REMARK  status: ('A' for Active; 'I' for Inactive)
REMARK    1  A    between atoms: C_3  and  O_13
REMARK    2  A    between atoms: C_4  and  O_12
REMARK    3  A    between atoms: C_6  and  C_7
REMARK    4  A    between atoms: C_8  and  C_9
REMARK    5  A    between atoms: C_9  and  O_11
REMARK    6  A    between atoms: O_13  and  C_14
REMARK                            x       y       z     vdW  Elec       q    Type
REMARK                         _______ _______ _______ _____ _____    ______ ____
ROOT
ATOM      1  C   UNL     1      -2.809 -10.092  -5.674  0.00  0.00    +0.000 A 
ATOM      2  C   UNL     1      -1.950 -10.954  -4.982  0.00  0.00    +0.000 A 
ATOM      3  C   UNL     1      -0.926 -10.471  -4.153  0.00  0.00    +0.000 A 
ATOM      4  C   UNL     1      -0.785  -9.087  -4.037  0.00  0.00    +0.000 A 
ATOM      5  C   UNL     1      -1.643  -8.221  -4.732  0.00  0.00    +0.000 A 
ATOM      6  C   UNL     1      -2.672  -8.709  -5.547  0.00  0.00    +0.000 A 
ENDROOT
BRANCH   6   7
ATOM      7  C   UNL     1      -3.570  -7.824  -6.306  0.00  0.00    +0.000 C 
ATOM      8  C   UNL     1      -3.677  -6.501  -6.090  0.00  0.00    +0.000 C 
BRANCH   8   9
ATOM      9  C   UNL     1      -4.563  -5.606  -6.844  0.00  0.00    +0.000 C 
ATOM     10  O   UNL     1      -5.538  -5.979  -7.471  0.00  0.00    +0.000 OA
BRANCH   9  11
ATOM     11  O   UNL     1      -4.213  -4.313  -6.789  0.00  0.00    +0.000 OA
ATOM     12  H   UNL     1      -4.884  -3.918  -6.196  0.00  0.00    +0.000 HD
ENDBRANCH   9  11
ENDBRANCH   8   9
ENDBRANCH   6   7
BRANCH   4  13
ATOM     13  O   UNL     1       0.142  -8.438  -3.273  0.00  0.00    +0.000 OA
ATOM     14  H   UNL     1       0.265  -8.922  -2.448  0.00  0.00    +0.000 HD
ENDBRANCH   4  13
BRANCH   3  15
ATOM     15  O   UNL     1      -0.224 -11.485  -3.572  0.00  0.00    +0.000 OA
ATOM     16  C   UNL     1       1.117 -11.749  -3.934  0.00  0.00    +0.000 C 
ENDBRANCH   3  15
TORSDOF 5
ENDMDL
MODEL 4
REMARK VINA RESULT:    -6.843      1.866      2.765
REMARK INTER + INTRA:          -8.560
REMARK INTER:                  -8.379
REMARK INTRA:                  -0.180
REMARK UNBOUND:                -0.117
REMARK  Name = 
REMARK  6 active torsions:
REMARK  status: ('A' for Active; 'I' for Inactive)
REMARK    1  A    between atoms: C_3  and  O_13
REMARK    2  A    between atoms: C_4  and  O_12
REMARK    3  A    between atoms: C_6  and  C_7
REMARK    4  A    between atoms: C_8  and  C_9
REMARK    5  A    between atoms: C_9  and  O_11
REMARK    6  A    between atoms: O_13  and  C_14
REMARK                            x       y       z     vdW  Elec       q    Type
REMARK                         _______ _______ _______ _____ _____    ______ ____
ROOT
ATOM      1  C   UNL     1      -3.424  -9.189  -5.903  0.00  0.00    +0.000 A 
ATOM      2  C   UNL     1      -2.450 -10.084  -5.444  0.00  0.00    +0.000 A 
ATOM      3  C   UNL     1      -1.329  -9.651  -4.719  0.00  0.00    +0.000 A 
ATOM      4  C   UNL     1      -1.209  -8.283  -4.466  0.00  0.00    +0.000 A 
ATOM      5  C   UNL     1      -2.182  -7.385  -4.928  0.00  0.00    +0.000 A 
ATOM      6  C   UNL     1      -3.306  -7.823  -5.639  0.00  0.00    +0.000 A 
ENDROOT
BRANCH   6   7
ATOM      7  C   UNL     1      -4.329  -6.900  -6.156  0.00  0.00    +0.000 C 
ATOM      8  C   UNL     1      -5.590  -6.844  -5.694  0.00  0.00    +0.000 C 
BRANCH   8   9
ATOM      9  C   UNL     1      -6.617  -5.923  -6.196  0.00  0.00    +0.000 C 
ATOM     10  O   UNL     1      -6.531  -5.308  -7.243  0.00  0.00    +0.000 OA
BRANCH   9  11
ATOM     11  O   UNL     1      -7.687  -5.807  -5.397  0.00  0.00    +0.000 OA
ATOM     12  H   UNL     1      -7.400  -6.234  -4.564  0.00  0.00    +0.000 HD
ENDBRANCH   9  11
ENDBRANCH   8   9
ENDBRANCH   6   7
BRANCH   4  13
ATOM     13  O   UNL     1      -0.198  -7.683  -3.773  0.00  0.00    +0.000 OA
ATOM     14  H   UNL     1      -0.567  -7.231  -3.004  0.00  0.00    +0.000 HD
ENDBRANCH   4  13
BRANCH   3  15
ATOM     15  O   UNL     1      -0.523 -10.692  -4.363  0.00  0.00    +0.000 OA
ATOM     16  C   UNL     1      -1.066 -11.933  -3.960  0.00  0.00    +0.000 C 
ENDBRANCH   3  15
TORSDOF 5
ENDMDL
MODEL 5
REMARK VINA RESULT:    -6.784      1.386      6.558
REMARK INTER + INTRA:          -8.487
REMARK INTER:                  -8.283
REMARK INTRA:                  -0.204
REMARK UNBOUND:                -0.117
REMARK  Name = 
REMARK  6 active torsions:
REMARK  status: ('A' for Active; 'I' for Inactive)
REMARK    1  A    between atoms: C_3  and  O_13
REMARK    2  A    between atoms: C_4  and  O_12
REMARK    3  A    between atoms: C_6  and  C_7
REMARK    4  A    between atoms: C_8  and  C_9
REMARK    5  A    between atoms: C_9  and  O_11
REMARK    6  A    between atoms: O_13  and  C_14
REMARK                            x       y       z     vdW  Elec       q    Type
REMARK                         _______ _______ _______ _____ _____    ______ ____
ROOT
ATOM      1  C   UNL     1      -4.225  -7.972  -6.811  0.00  0.00    +0.000 A 
ATOM      2  C   UNL     1      -5.006  -6.876  -7.196  0.00  0.00    +0.000 A 
ATOM      3  C   UNL     1      -4.811  -5.599  -6.647  0.00  0.00    +0.000 A 
ATOM      4  C   UNL     1      -3.803  -5.451  -5.693  0.00  0.00    +0.000 A 
ATOM      5  C   UNL     1      -3.021  -6.549  -5.304  0.00  0.00    +0.000 A 
ATOM      6  C   UNL     1      -3.211  -7.818  -5.865  0.00  0.00    +0.000 A 
ENDROOT
BRANCH   6   7
ATOM      7  C   UNL     1      -2.422  -8.991  -5.457  0.00  0.00    +0.000 C 
ATOM      8  C   UNL     1      -2.862 -10.258  -5.547  0.00  0.00    +0.000 C 
BRANCH   8   9
ATOM      9  C   UNL     1      -2.083 -11.437  -5.152  0.00  0.00    +0.000 C 
ATOM     10  O   UNL     1      -1.478 -11.535  -4.099  0.00  0.00    +0.000 OA
BRANCH   9  11
ATOM     11  O   UNL     1      -2.089 -12.427  -6.056  0.00  0.00    +0.000 OA
ATOM     12  H   UNL     1      -2.721 -12.115  -6.735  0.00  0.00    +0.000 HD
ENDBRANCH   9  11
ENDBRANCH   8   9
ENDBRANCH   6   7
BRANCH   4  13
ATOM     13  O   UNL     1      -3.464  -4.289  -5.061  0.00  0.00    +0.000 OA
ATOM     14  H   UNL     1      -4.137  -4.080  -4.402  0.00  0.00    +0.000 HD
ENDBRANCH   4  13
BRANCH   3  15
ATOM     15  O   UNL     1      -5.673  -4.684  -7.175  0.00  0.00    +0.000 OA
ATOM     16  C   UNL     1      -6.928  -4.429  -6.576  0.00  0.00    +0.000 C 
ENDBRANCH   3  15
TORSDOF 5
ENDMDL
MODEL 6
REMARK VINA RESULT:    -6.520      1.672      6.607
REMARK INTER + INTRA:          -8.161
REMARK INTER:                  -7.980
REMARK INTRA:                  -0.181
REMARK UNBOUND:                -0.117
REMARK  Name = 
REMARK  6 active torsions:
REMARK  status: ('A' for Active; 'I' for Inactive)
REMARK    1  A    between atoms: C_3  and  O_13
REMARK    2  A    between atoms: C_4  and  O_12
REMARK    3  A    between atoms: C_6  and  C_7
REMARK    4  A    between atoms: C_8  and  C_9
REMARK    5  A    between atoms: C_9  and  O_11
REMARK    6  A    between atoms: O_13  and  C_14
REMARK                            x       y       z     vdW  Elec       q    Type
REMARK                         _______ _______ _______ _____ _____    ______ ____
ROOT
ATOM      1  C   UNL     1      -3.581  -6.182  -6.174  0.00  0.00    +0.000 A 
ATOM      2  C   UNL     1      -4.234  -4.949  -6.056  0.00  0.00    +0.000 A 
ATOM      3  C   UNL     1      -5.606  -4.863  -5.772  0.00  0.00    +0.000 A 
ATOM      4  C   UNL     1      -6.311  -6.056  -5.609  0.00  0.00    +0.000 A 
ATOM      5  C   UNL     1      -5.658  -7.292  -5.730  0.00  0.00    +0.000 A 
ATOM      6  C   UNL     1      -4.287  -7.373  -5.999  0.00  0.00    +0.000 A 
ENDROOT
BRANCH   6   7
ATOM      7  C   UNL     1      -3.583  -8.656  -6.155  0.00  0.00    +0.000 C 
ATOM      8  C   UNL     1      -2.943  -9.286  -5.154  0.00  0.00    +0.000 C 
BRANCH   8   9
ATOM      9  C   UNL     1      -2.244 -10.569  -5.295  0.00  0.00    +0.000 C 
ATOM     10  O   UNL     1      -1.275 -10.895  -4.632  0.00  0.00    +0.000 OA
BRANCH   9  11
ATOM     11  O   UNL     1      -2.765 -11.379  -6.227  0.00  0.00    +0.000 OA
ATOM     12  H   UNL     1      -2.472 -10.977  -7.071  0.00  0.00    +0.000 HD
ENDBRANCH   9  11
ENDBRANCH   8   9
ENDBRANCH   6   7
BRANCH   4  13
ATOM     13  O   UNL     1      -7.641  -6.167  -5.320  0.00  0.00    +0.000 OA
ATOM     14  H   UNL     1      -7.770  -6.038  -4.373  0.00  0.00    +0.000 HD
ENDBRANCH   4  13
BRANCH   3  15
ATOM     15  O   UNL     1      -6.025  -3.567  -5.691  0.00  0.00    +0.000 OA
ATOM     16  C   UNL     1      -6.289  -2.809  -6.854  0.00  0.00    +0.000 C 
ENDBRANCH   3  15
TORSDOF 5
ENDMDL
MODEL 7
REMARK VINA RESULT:    -6.466      1.530      6.008
REMARK INTER + INTRA:          -8.096
REMARK INTER:                  -7.892
REMARK INTRA:                  -0.203
REMARK UNBOUND:                -0.117
REMARK  Name = 
REMARK  6 active torsions:
REMARK  status: ('A' for Active; 'I' for Inactive)
REMARK    1  A    between atoms: C_3  and  O_13
REMARK    2  A    between atoms: C_4  and  O_12
REMARK    3  A    between atoms: C_6  and  C_7
REMARK    4  A    between atoms: C_8  and  C_9
REMARK    5  A    between atoms: C_9  and  O_11
REMARK    6  A    between atoms: O_13  and  C_14
REMARK                            x       y       z     vdW  Elec       q    Type
REMARK                         _______ _______ _______ _____ _____    ______ ____
ROOT
ATOM      1  C   UNL     1      -2.495  -7.264  -5.023  0.00  0.00    +0.000 A 
ATOM      2  C   UNL     1      -3.194  -6.113  -5.409  0.00  0.00    +0.000 A 
ATOM      3  C   UNL     1      -4.212  -6.155  -6.374  0.00  0.00    +0.000 A 
ATOM      4  C   UNL     1      -4.512  -7.392  -6.947  0.00  0.00    +0.000 A 
ATOM      5  C   UNL     1      -3.811  -8.545  -6.563  0.00  0.00    +0.000 A 
ATOM      6  C   UNL     1      -2.806  -8.501  -5.589  0.00  0.00    +0.000 A 
ENDROOT
BRANCH   6   7
ATOM      7  C   UNL     1      -2.038  -9.690  -5.186  0.00  0.00    +0.000 C 
ATOM      8  C   UNL     1      -1.061  -9.674  -4.262  0.00  0.00    +0.000 C 
BRANCH   8   9
ATOM      9  C   UNL     1      -0.294 -10.853  -3.846  0.00  0.00    +0.000 C 
ATOM     10  O   UNL     1      -0.610 -12.000  -4.104  0.00  0.00    +0.000 OA
BRANCH   9  11
ATOM     11  O   UNL     1       0.813 -10.568  -3.145  0.00  0.00    +0.000 OA
ATOM     12  H   UNL     1       0.914  -9.601  -3.258  0.00  0.00    +0.000 HD
ENDBRANCH   9  11
ENDBRANCH   8   9
ENDBRANCH   6   7
BRANCH   4  13
ATOM     13  O   UNL     1      -5.472  -7.626  -7.889  0.00  0.00    +0.000 OA
ATOM     14  H   UNL     1      -5.379  -6.981  -8.600  0.00  0.00    +0.000 HD
ENDBRANCH   4  13
BRANCH   3  15
ATOM     15  O   UNL     1      -4.761  -4.924  -6.584  0.00  0.00    +0.000 OA
ATOM     16  C   UNL     1      -5.711  -4.385  -5.687  0.00  0.00    +0.000 C 
ENDBRANCH   3  15
TORSDOF 5
ENDMDL
MODEL 8
REMARK VINA RESULT:    -6.192      1.895      6.171
REMARK INTER + INTRA:          -7.757
REMARK INTER:                  -7.583
REMARK INTRA:                  -0.173
REMARK UNBOUND:                -0.117
REMARK  Name = 
REMARK  6 active torsions:
REMARK  status: ('A' for Active; 'I' for Inactive)
REMARK    1  A    between atoms: C_3  and  O_13
REMARK    2  A    between atoms: C_4  and  O_12
REMARK    3  A    between atoms: C_6  and  C_7
REMARK    4  A    between atoms: C_8  and  C_9
REMARK    5  A    between atoms: C_9  and  O_11
REMARK    6  A    between atoms: O_13  and  C_14
REMARK                            x       y       z     vdW  Elec       q    Type
REMARK                         _______ _______ _______ _____ _____    ______ ____
ROOT
ATOM      1  C   UNL     1      -3.196  -6.078  -5.815  0.00  0.00    +0.000 A 
ATOM      2  C   UNL     1      -4.215  -5.369  -6.461  0.00  0.00    +0.000 A 
ATOM      3  C   UNL     1      -5.308  -6.020  -7.055  0.00  0.00    +0.000 A 
ATOM      4  C   UNL     1      -5.350  -7.413  -6.983  0.00  0.00    +0.000 A 
ATOM      5  C   UNL     1      -4.327  -8.125  -6.338  0.00  0.00    +0.000 A 
ATOM      6  C   UNL     1      -3.247  -7.470  -5.735  0.00  0.00    +0.000 A 
ENDROOT
BRANCH   6   7
ATOM      7  C   UNL     1      -2.148  -8.194  -5.074  0.00  0.00    +0.000 C 
ATOM      8  C   UNL     1      -2.076  -9.534  -4.994  0.00  0.00    +0.000 C 
BRANCH   8   9
ATOM      9  C   UNL     1      -0.983 -10.268  -4.344  0.00  0.00    +0.000 C 
ATOM     10  O   UNL     1      -0.790 -11.463  -4.475  0.00  0.00    +0.000 OA
BRANCH   9  11
ATOM     11  O   UNL     1      -0.190  -9.505  -3.578  0.00  0.00    +0.000 OA
ATOM     12  H   UNL     1       0.105  -8.797  -4.186  0.00  0.00    +0.000 HD
ENDBRANCH   9  11
ENDBRANCH   8   9
ENDBRANCH   6   7
BRANCH   4  13
ATOM     13  O   UNL     1      -6.334  -8.212  -7.491  0.00  0.00    +0.000 OA
ATOM     14  H   UNL     1      -7.139  -7.691  -7.596  0.00  0.00    +0.000 HD
ENDBRANCH   4  13
BRANCH   3  15
ATOM     15  O   UNL     1      -6.182  -5.134  -7.614  0.00  0.00    +0.000 OA
ATOM     16  C   UNL     1      -6.836  -4.158  -6.828  0.00  0.00    +0.000 C 
ENDBRANCH   3  15
TORSDOF 5
ENDMDL
MODEL 9
REMARK VINA RESULT:    -6.150      1.991      6.741
REMARK INTER + INTRA:          -7.706
REMARK INTER:                  -7.588
REMARK INTRA:                  -0.117
REMARK UNBOUND:                -0.117
REMARK  Name = 
REMARK  6 active torsions:
REMARK  status: ('A' for Active; 'I' for Inactive)
REMARK    1  A    between atoms: C_3  and  O_13
REMARK    2  A    between atoms: C_4  and  O_12
REMARK    3  A    between atoms: C_6  and  C_7
REMARK    4  A    between atoms: C_8  and  C_9
REMARK    5  A    between atoms: C_9  and  O_11
REMARK    6  A    between atoms: O_13  and  C_14
REMARK                            x       y       z     vdW  Elec       q    Type
REMARK                         _______ _______ _______ _____ _____    ______ ____
ROOT
ATOM      1  C   UNL     1      -4.697  -7.436  -7.607  0.00  0.00    +0.000 A 
ATOM      2  C   UNL     1      -5.451  -6.344  -8.056  0.00  0.00    +0.000 A 
ATOM      3  C   UNL     1      -5.949  -5.376  -7.171  0.00  0.00    +0.000 A 
ATOM      4  C   UNL     1      -5.669  -5.533  -5.812  0.00  0.00    +0.000 A 
ATOM      5  C   UNL     1      -4.917  -6.629  -5.361  0.00  0.00    +0.000 A 
ATOM      6  C   UNL     1      -4.411  -7.585  -6.249  0.00  0.00    +0.000 A 
ENDROOT
BRANCH   6   7
ATOM      7  C   UNL     1      -3.640  -8.756  -5.800  0.00  0.00    +0.000 C 
ATOM      8  C   UNL     1      -2.730  -8.719  -4.811  0.00  0.00    +0.000 C 
BRANCH   8   9
ATOM      9  C   UNL     1      -1.961  -9.880  -4.349  0.00  0.00    +0.000 C 
ATOM     10  O   UNL     1      -1.571 -10.775  -5.077  0.00  0.00    +0.000 OA
BRANCH   9  11
ATOM     11  O   UNL     1      -1.708  -9.882  -3.032  0.00  0.00    +0.000 OA
ATOM     12  H   UNL     1      -2.465  -9.391  -2.652  0.00  0.00    +0.000 HD
ENDBRANCH   9  11
ENDBRANCH   8   9
ENDBRANCH   6   7
BRANCH   4  13
ATOM     13  O   UNL     1      -6.060  -4.691  -4.812  0.00  0.00    +0.000 OA
ATOM     14  H   UNL     1      -6.842  -4.203  -5.098  0.00  0.00    +0.000 HD
ENDBRANCH   4  13
BRANCH   3  15
ATOM     15  O   UNL     1      -6.641  -4.400  -7.826  0.00  0.00    +0.000 OA
ATOM     16  C   UNL     1      -6.272  -3.039  -7.712  0.00  0.00    +0.000 C 
ENDBRANCH   3  15
TORSDOF 5
ENDMDL
