REMARK  Name = 
REMARK  12 active torsions:
REMARK  status: ('A' for Active; 'I' for Inactive)
REMARK    1  A    between atoms: C_1  and  C_2
REMARK    2  A    between atoms: C_1  and  O_23
REMARK    3  A    between atoms: C_3  and  O_11
REMARK    4  A    between atoms: C_4  and  O_10
REMARK    5  A    between atoms: C_5  and  O_9
REMARK    6  A    between atoms: C_6  and  O_8
REMARK    7  A    between atoms: O_11  and  C_12
REMARK    8  A    between atoms: C_13  and  C_21
REMARK    9  A    between atoms: C_15  and  O_20
REMARK   10  A    between atoms: C_16  and  O_19
REMARK   11  A    between atoms: C_17  and  O_18
REMARK   12  A    between atoms: C_21  and  O_22
REMARK                            x       y       z     vdW  Elec       q    Type
REMARK                         _______ _______ _______ _____ _____    ______ ____
ROOT
ATOM      1  O   UNL     1      -1.616   3.255   0.442  0.00  0.00    +0.000 OA
ENDROOT
BRANCH   1   3
ATOM      2  C   UNL     1      -1.707   5.727   0.364  0.00  0.00    +0.000 C 
ATOM      3  C   UNL     1      -1.247   4.472   1.145  0.00  0.00    +0.000 C 
ATOM      4  C   UNL     1       0.262   4.626   1.462  0.00  0.00    +0.000 C 
ATOM      5  C   UNL     1       0.566   5.961   2.162  0.00  0.00    +0.000 C 
ATOM      6  C   UNL     1      -0.112   7.165   1.496  0.00  0.00    +0.000 C 
ATOM      7  O   UNL     1      -1.466   6.907   1.160  0.00  0.00    +0.000 OA
BRANCH   6   8
ATOM      8  O   UNL     1       0.626   7.584   0.356  0.00  0.00    +0.000 OA
ATOM      9  H   UNL     1       1.553   7.338   0.552  0.00  0.00    +0.000 HD
ENDBRANCH   6   8
BRANCH   5  10
ATOM     10  O   UNL     1       1.988   6.183   2.183  0.00  0.00    +0.000 OA
ATOM     11  H   UNL     1       2.425   5.323   2.021  0.00  0.00    +0.000 HD
ENDBRANCH   5  10
BRANCH   4  12
ATOM     12  O   UNL     1       0.778   3.595   2.323  0.00  0.00    +0.000 OA
ATOM     13  H   UNL     1       0.399   3.700   3.217  0.00  0.00    +0.000 HD
ENDBRANCH   4  12
BRANCH   2  14
ATOM     14  C   UNL     1      -1.136   5.869  -1.059  0.00  0.00    +0.000 C 
BRANCH  14  15
ATOM     15  O   UNL     1      -1.482   7.149  -1.589  0.00  0.00    +0.000 OA
ATOM     16  H   UNL     1      -1.094   7.797  -0.964  0.00  0.00    +0.000 HD
ENDBRANCH  14  15
ENDBRANCH   2  14
ENDBRANCH   1   3
BRANCH   1  17
ATOM     17  C   UNL     1      -1.336   2.026   1.158  0.00  0.00    +0.000 C 
ATOM     18  C   UNL     1      -2.021   1.902   2.526  0.00  0.00    +0.000 C 
ATOM     19  O   UNL     1      -1.624   0.699   3.203  0.00  0.00    +0.000 OA
ATOM     20  C   UNL     1      -1.836  -0.511   2.486  0.00  0.00    +0.000 C 
ATOM     21  C   UNL     1      -1.175  -0.476   1.089  0.00  0.00    +0.000 C 
ATOM     22  C   UNL     1      -1.625   0.773   0.290  0.00  0.00    +0.000 C 
BRANCH  22  23
ATOM     23  O   UNL     1      -3.004   0.635  -0.063  0.00  0.00    +0.000 OA
ATOM     24  H   UNL     1      -3.345   1.523  -0.283  0.00  0.00    +0.000 HD
ENDBRANCH  22  23
BRANCH  21  25
ATOM     25  O   UNL     1      -1.477  -1.692   0.395  0.00  0.00    +0.000 OA
ATOM     26  H   UNL     1      -1.245  -1.574  -0.541  0.00  0.00    +0.000 HD
ENDBRANCH  21  25
BRANCH  20  27
ATOM     27  O   UNL     1      -3.222  -0.818   2.429  0.00  0.00    +0.000 OA
ATOM     28  H   UNL     1      -3.410  -1.005   1.487  0.00  0.00    +0.000 HD
ENDBRANCH  20  27
BRANCH  18  29
ATOM     29  C   UNL     1      -3.543   2.109   2.528  0.00  0.00    +0.000 C 
BRANCH  29  30
ATOM     30  O   UNL     1      -4.013   2.013   3.874  0.00  0.00    +0.000 OA
ATOM     31  H   UNL     1      -3.785   1.101   4.156  0.00  0.00    +0.000 HD
ENDBRANCH  29  30
ENDBRANCH  18  29
ENDBRANCH   1  17
TORSDOF 12
