REMARK  Name = 
REMARK  6 active torsions:
REMARK  status: ('A' for Active; 'I' for Inactive)
REMARK    1  A    between atoms: C_3  and  O_13
REMARK    2  A    between atoms: C_4  and  O_12
REMARK    3  A    between atoms: C_6  and  C_7
REMARK    4  A    between atoms: C_8  and  C_9
REMARK    5  A    between atoms: C_9  and  O_11
REMARK    6  A    between atoms: O_13  and  C_14
REMARK                            x       y       z     vdW  Elec       q    Type
REMARK                         _______ _______ _______ _____ _____    ______ ____
ROOT
ATOM      1  C   UNL     1      -1.804   0.098  -0.018  0.00  0.00    +0.000 A 
ATOM      2  C   UNL     1      -1.099  -1.113  -0.024  0.00  0.00    +0.000 A 
ATOM      3  C   UNL     1       0.302  -1.155   0.009  0.00  0.00    +0.000 A 
ATOM      4  C   UNL     1       0.988   0.062   0.047  0.00  0.00    +0.000 A 
ATOM      5  C   UNL     1       0.281   1.274   0.048  0.00  0.00    +0.000 A 
ATOM      6  C   UNL     1      -1.118   1.311   0.031  0.00  0.00    +0.000 A 
ENDROOT
BRANCH   6   7
ATOM      7  C   UNL     1      -1.873   2.574   0.016  0.00  0.00    +0.000 C 
ATOM      8  C   UNL     1      -1.434   3.706   0.592  0.00  0.00    +0.000 C 
BRANCH   8   9
ATOM      9  C   UNL     1      -2.163   4.980   0.589  0.00  0.00    +0.000 C 
ATOM     10  O   UNL     1      -1.754   6.005   1.101  0.00  0.00    +0.000 OA
BRANCH   9  11
ATOM     11  O   UNL     1      -3.347   4.933  -0.041  0.00  0.00    +0.000 OA
ATOM     12  H   UNL     1      -3.686   5.849   0.049  0.00  0.00    +0.000 HD
ENDBRANCH   9  11
ENDBRANCH   8   9
ENDBRANCH   6   7
BRANCH   4  13
ATOM     13  O   UNL     1       2.341   0.233   0.098  0.00  0.00    +0.000 OA
ATOM     14  H   UNL     1       2.783  -0.536  -0.277  0.00  0.00    +0.000 HD
ENDBRANCH   4  13
BRANCH   3  15
ATOM     15  O   UNL     1       0.769  -2.436   0.010  0.00  0.00    +0.000 OA
ATOM     16  C   UNL     1       2.153  -2.716   0.059  0.00  0.00    +0.000 C 
ENDBRANCH   3  15
TORSDOF 5
