MODEL 1
REMARK VINA RESULT:    -6.625      0.000      0.000
REMARK INTER + INTRA:          -8.379
REMARK INTER:                  -8.317
REMARK INTRA:                  -0.062
REMARK UNBOUND:                -0.204
REMARK  Name = 
REMARK  6 active torsions:
REMARK  status: ('A' for Active; 'I' for Inactive)
REMARK    1  A    between atoms: C_3  and  O_13
REMARK    2  A    between atoms: C_4  and  O_12
REMARK    3  A    between atoms: C_6  and  C_7
REMARK    4  A    between atoms: C_8  and  C_9
REMARK    5  A    between atoms: C_9  and  O_11
REMARK    6  A    between atoms: O_13  and  C_14
REMARK                            x       y       z     vdW  Elec       q    Type
REMARK                         _______ _______ _______ _____ _____    ______ ____
ROOT
ATOM      1  C   UNL     1      -9.868  -5.664  -5.281  0.00  0.00    +0.000 A 
ATOM      2  C   UNL     1     -11.029  -6.093  -4.624  0.00  0.00    +0.000 A 
ATOM      3  C   UNL     1     -11.006  -6.544  -3.297  0.00  0.00    +0.000 A 
ATOM      4  C   UNL     1      -9.775  -6.557  -2.636  0.00  0.00    +0.000 A 
ATOM      5  C   UNL     1      -8.612  -6.133  -3.297  0.00  0.00    +0.000 A 
ATOM      6  C   UNL     1      -8.642  -5.668  -4.616  0.00  0.00    +0.000 A 
ENDROOT
BRANCH   6   7
ATOM      7  C   UNL     1      -7.429  -5.234  -5.327  0.00  0.00    +0.000 C 
ATOM      8  C   UNL     1      -6.968  -3.972  -5.304  0.00  0.00    +0.000 C 
BRANCH   8   9
ATOM      9  C   UNL     1      -5.760  -3.512  -5.999  0.00  0.00    +0.000 C 
ATOM     10  O   UNL     1      -5.102  -2.546  -5.663  0.00  0.00    +0.000 OA
BRANCH   9  11
ATOM     11  O   UNL     1      -5.421  -4.259  -7.062  0.00  0.00    +0.000 OA
ATOM     12  H   UNL     1      -6.184  -4.146  -7.668  0.00  0.00    +0.000 HD
ENDBRANCH   9  11
ENDBRANCH   8   9
ENDBRANCH   6   7
BRANCH   4  13
ATOM     13  O   UNL     1      -9.546  -6.944  -1.347  0.00  0.00    +0.000 OA
ATOM     14  H   UNL     1      -8.619  -6.810  -1.125  0.00  0.00    +0.000 HD
ENDBRANCH   4  13
BRANCH   3  15
ATOM     15  O   UNL     1     -12.250  -6.896  -2.862  0.00  0.00    +0.000 OA
ATOM     16  C   UNL     1     -12.736  -6.476  -1.603  0.00  0.00    +0.000 C 
ENDBRANCH   3  15
TORSDOF 5
ENDMDL
MODEL 2
REMARK VINA RESULT:    -6.254      1.376      2.301
REMARK INTER + INTRA:          -7.920
REMARK INTER:                  -7.742
REMARK INTRA:                  -0.178
REMARK UNBOUND:                -0.204
REMARK  Name = 
REMARK  6 active torsions:
REMARK  status: ('A' for Active; 'I' for Inactive)
REMARK    1  A    between atoms: C_3  and  O_13
REMARK    2  A    between atoms: C_4  and  O_12
REMARK    3  A    between atoms: C_6  and  C_7
REMARK    4  A    between atoms: C_8  and  C_9
REMARK    5  A    between atoms: C_9  and  O_11
REMARK    6  A    between atoms: O_13  and  C_14
REMARK                            x       y       z     vdW  Elec       q    Type
REMARK                         _______ _______ _______ _____ _____    ______ ____
ROOT
ATOM      1  C   UNL     1      -9.183  -6.270  -2.767  0.00  0.00    +0.000 A 
ATOM      2  C   UNL     1     -10.496  -6.605  -2.412  0.00  0.00    +0.000 A 
ATOM      3  C   UNL     1     -11.542  -6.593  -3.345  0.00  0.00    +0.000 A 
ATOM      4  C   UNL     1     -11.236  -6.230  -4.660  0.00  0.00    +0.000 A 
ATOM      5  C   UNL     1      -9.922  -5.889  -5.013  0.00  0.00    +0.000 A 
ATOM      6  C   UNL     1      -8.877  -5.918  -4.082  0.00  0.00    +0.000 A 
ENDROOT
BRANCH   6   7
ATOM      7  C   UNL     1      -7.497  -5.549  -4.434  0.00  0.00    +0.000 C 
ATOM      8  C   UNL     1      -6.916  -4.402  -4.045  0.00  0.00    +0.000 C 
BRANCH   8   9
ATOM      9  C   UNL     1      -5.541  -4.009  -4.377  0.00  0.00    +0.000 C 
ATOM     10  O   UNL     1      -4.956  -4.350  -5.387  0.00  0.00    +0.000 OA
BRANCH   9  11
ATOM     11  O   UNL     1      -4.958  -3.221  -3.460  0.00  0.00    +0.000 OA
ATOM     12  H   UNL     1      -4.291  -2.726  -3.980  0.00  0.00    +0.000 HD
ENDBRANCH   9  11
ENDBRANCH   8   9
ENDBRANCH   6   7
BRANCH   4  13
ATOM     13  O   UNL     1     -12.104  -6.171  -5.711  0.00  0.00    +0.000 OA
ATOM     14  H   UNL     1     -11.637  -5.898  -6.507  0.00  0.00    +0.000 HD
ENDBRANCH   4  13
BRANCH   3  15
ATOM     15  O   UNL     1     -12.726  -6.966  -2.781  0.00  0.00    +0.000 OA
ATOM     16  C   UNL     1     -13.020  -6.683  -1.429  0.00  0.00    +0.000 C 
ENDBRANCH   3  15
TORSDOF 5
ENDMDL
MODEL 3
REMARK VINA RESULT:    -5.547     13.439     14.781
REMARK INTER + INTRA:          -7.048
REMARK INTER:                  -6.840
REMARK INTRA:                  -0.208
REMARK UNBOUND:                -0.204
REMARK  Name = 
REMARK  6 active torsions:
REMARK  status: ('A' for Active; 'I' for Inactive)
REMARK    1  A    between atoms: C_3  and  O_13
REMARK    2  A    between atoms: C_4  and  O_12
REMARK    3  A    between atoms: C_6  and  C_7
REMARK    4  A    between atoms: C_8  and  C_9
REMARK    5  A    between atoms: C_9  and  O_11
REMARK    6  A    between atoms: O_13  and  C_14
REMARK                            x       y       z     vdW  Elec       q    Type
REMARK                         _______ _______ _______ _____ _____    ______ ____
ROOT
ATOM      1  C   UNL     1       0.221   6.861  -6.080  0.00  0.00    +0.000 A 
ATOM      2  C   UNL     1       0.331   7.372  -4.780  0.00  0.00    +0.000 A 
ATOM      3  C   UNL     1      -0.536   6.975  -3.752  0.00  0.00    +0.000 A 
ATOM      4  C   UNL     1      -1.530   6.043  -4.064  0.00  0.00    +0.000 A 
ATOM      5  C   UNL     1      -1.642   5.536  -5.367  0.00  0.00    +0.000 A 
ATOM      6  C   UNL     1      -0.764   5.923  -6.386  0.00  0.00    +0.000 A 
ENDROOT
BRANCH   6   7
ATOM      7  C   UNL     1      -0.878   5.412  -7.761  0.00  0.00    +0.000 C 
ATOM      8  C   UNL     1       0.173   5.262  -8.586  0.00  0.00    +0.000 C 
BRANCH   8   9
ATOM      9  C   UNL     1       0.089   4.752  -9.959  0.00  0.00    +0.000 C 
ATOM     10  O   UNL     1       1.032   4.687 -10.725  0.00  0.00    +0.000 OA
BRANCH   9  11
ATOM     11  O   UNL     1      -1.138   4.345 -10.319  0.00  0.00    +0.000 OA
ATOM     12  H   UNL     1      -1.254   3.509  -9.821  0.00  0.00    +0.000 HD
ENDBRANCH   9  11
ENDBRANCH   8   9
ENDBRANCH   6   7
BRANCH   4  13
ATOM     13  O   UNL     1      -2.456   5.523  -3.207  0.00  0.00    +0.000 OA
ATOM     14  H   UNL     1      -3.004   6.228  -2.848  0.00  0.00    +0.000 HD
ENDBRANCH   4  13
BRANCH   3  15
ATOM     15  O   UNL     1      -0.235   7.589  -2.572  0.00  0.00    +0.000 OA
ATOM     16  C   UNL     1      -0.963   8.712  -2.119  0.00  0.00    +0.000 C 
ENDBRANCH   3  15
TORSDOF 5
ENDMDL
MODEL 4
REMARK VINA RESULT:    -5.522     14.730     16.759
REMARK INTER + INTRA:          -7.017
REMARK INTER:                  -6.835
REMARK INTRA:                  -0.182
REMARK UNBOUND:                -0.204
REMARK  Name = 
REMARK  6 active torsions:
REMARK  status: ('A' for Active; 'I' for Inactive)
REMARK    1  A    between atoms: C_3  and  O_13
REMARK    2  A    between atoms: C_4  and  O_12
REMARK    3  A    between atoms: C_6  and  C_7
REMARK    4  A    between atoms: C_8  and  C_9
REMARK    5  A    between atoms: C_9  and  O_11
REMARK    6  A    between atoms: O_13  and  C_14
REMARK                            x       y       z     vdW  Elec       q    Type
REMARK                         _______ _______ _______ _____ _____    ______ ____
ROOT
ATOM      1  C   UNL     1      -2.918  10.620  -3.773  0.00  0.00    +0.000 A 
ATOM      2  C   UNL     1      -1.895  10.129  -2.951  0.00  0.00    +0.000 A 
ATOM      3  C   UNL     1      -1.808   8.774  -2.605  0.00  0.00    +0.000 A 
ATOM      4  C   UNL     1      -2.785   7.911  -3.108  0.00  0.00    +0.000 A 
ATOM      5  C   UNL     1      -3.812   8.404  -3.927  0.00  0.00    +0.000 A 
ATOM      6  C   UNL     1      -3.886   9.755  -4.283  0.00  0.00    +0.000 A 
ENDROOT
BRANCH   6   7
ATOM      7  C   UNL     1      -4.966  10.290  -5.128  0.00  0.00    +0.000 C 
ATOM      8  C   UNL     1      -4.751  11.091  -6.185  0.00  0.00    +0.000 C 
BRANCH   8   9
ATOM      9  C   UNL     1      -5.807  11.636  -7.047  0.00  0.00    +0.000 C 
ATOM     10  O   UNL     1      -6.523  12.572  -6.746  0.00  0.00    +0.000 OA
BRANCH   9  11
ATOM     11  O   UNL     1      -5.927  11.010  -8.228  0.00  0.00    +0.000 OA
ATOM     12  H   UNL     1      -6.898  10.928  -8.341  0.00  0.00    +0.000 HD
ENDBRANCH   9  11
ENDBRANCH   8   9
ENDBRANCH   6   7
BRANCH   4  13
ATOM     13  O   UNL     1      -2.867   6.564  -2.901  0.00  0.00    +0.000 OA
ATOM     14  H   UNL     1      -3.690   6.351  -2.449  0.00  0.00    +0.000 HD
ENDBRANCH   4  13
BRANCH   3  15
ATOM     15  O   UNL     1      -0.728   8.523  -1.812  0.00  0.00    +0.000 OA
ATOM     16  C   UNL     1       0.567   8.962  -2.169  0.00  0.00    +0.000 C 
ENDBRANCH   3  15
TORSDOF 5
ENDMDL
MODEL 5
REMARK VINA RESULT:    -5.499     10.481     14.059
REMARK INTER + INTRA:          -6.989
REMARK INTER:                  -6.800
REMARK INTRA:                  -0.189
REMARK UNBOUND:                -0.204
REMARK  Name = 
REMARK  6 active torsions:
REMARK  status: ('A' for Active; 'I' for Inactive)
REMARK    1  A    between atoms: C_3  and  O_13
REMARK    2  A    between atoms: C_4  and  O_12
REMARK    3  A    between atoms: C_6  and  C_7
REMARK    4  A    between atoms: C_8  and  C_9
REMARK    5  A    between atoms: C_9  and  O_11
REMARK    6  A    between atoms: O_13  and  C_14
REMARK                            x       y       z     vdW  Elec       q    Type
REMARK                         _______ _______ _______ _____ _____    ______ ____
ROOT
ATOM      1  C   UNL     1      -3.177   6.071  -5.285  0.00  0.00    +0.000 A 
ATOM      2  C   UNL     1      -2.475   7.072  -4.600  0.00  0.00    +0.000 A 
ATOM      3  C   UNL     1      -1.137   7.372  -4.893  0.00  0.00    +0.000 A 
ATOM      4  C   UNL     1      -0.511   6.633  -5.900  0.00  0.00    +0.000 A 
ATOM      5  C   UNL     1      -1.213   5.628  -6.582  0.00  0.00    +0.000 A 
ATOM      6  C   UNL     1      -2.554   5.342  -6.297  0.00  0.00    +0.000 A 
ENDROOT
BRANCH   6   7
ATOM      7  C   UNL     1      -3.299   4.281  -6.992  0.00  0.00    +0.000 C 
ATOM      8  C   UNL     1      -4.584   4.400  -7.364  0.00  0.00    +0.000 C 
BRANCH   8   9
ATOM      9  C   UNL     1      -5.350   3.360  -8.062  0.00  0.00    +0.000 C 
ATOM     10  O   UNL     1      -5.166   2.165  -7.926  0.00  0.00    +0.000 OA
BRANCH   9  11
ATOM     11  O   UNL     1      -6.300   3.836  -8.882  0.00  0.00    +0.000 OA
ATOM     12  H   UNL     1      -5.785   4.227  -9.619  0.00  0.00    +0.000 HD
ENDBRANCH   9  11
ENDBRANCH   8   9
ENDBRANCH   6   7
BRANCH   4  13
ATOM     13  O   UNL     1       0.772   6.782  -6.341  0.00  0.00    +0.000 OA
ATOM     14  H   UNL     1       0.781   7.299  -7.154  0.00  0.00    +0.000 HD
ENDBRANCH   4  13
BRANCH   3  15
ATOM     15  O   UNL     1      -0.665   8.387  -4.114  0.00  0.00    +0.000 OA
ATOM     16  C   UNL     1      -1.525   9.383  -3.600  0.00  0.00    +0.000 C 
ENDBRANCH   3  15
TORSDOF 5
ENDMDL
MODEL 6
REMARK VINA RESULT:    -5.473     13.845     16.986
REMARK INTER + INTRA:          -6.957
REMARK INTER:                  -6.764
REMARK INTRA:                  -0.193
REMARK UNBOUND:                -0.204
REMARK  Name = 
REMARK  6 active torsions:
REMARK  status: ('A' for Active; 'I' for Inactive)
REMARK    1  A    between atoms: C_3  and  O_13
REMARK    2  A    between atoms: C_4  and  O_12
REMARK    3  A    between atoms: C_6  and  C_7
REMARK    4  A    between atoms: C_8  and  C_9
REMARK    5  A    between atoms: C_9  and  O_11
REMARK    6  A    between atoms: O_13  and  C_14
REMARK                            x       y       z     vdW  Elec       q    Type
REMARK                         _______ _______ _______ _____ _____    ______ ____
ROOT
ATOM      1  C   UNL     1      -4.296   9.871  -4.714  0.00  0.00    +0.000 A 
ATOM      2  C   UNL     1      -4.867  11.131  -4.934  0.00  0.00    +0.000 A 
ATOM      3  C   UNL     1      -4.347  12.293  -4.347  0.00  0.00    +0.000 A 
ATOM      4  C   UNL     1      -3.226  12.159  -3.523  0.00  0.00    +0.000 A 
ATOM      5  C   UNL     1      -2.658  10.896  -3.299  0.00  0.00    +0.000 A 
ATOM      6  C   UNL     1      -3.171   9.741  -3.900  0.00  0.00    +0.000 A 
ENDROOT
BRANCH   6   7
ATOM      7  C   UNL     1      -2.596   8.407  -3.663  0.00  0.00    +0.000 C 
ATOM      8  C   UNL     1      -2.509   7.459  -4.612  0.00  0.00    +0.000 C 
BRANCH   8   9
ATOM      9  C   UNL     1      -1.937   6.123  -4.406  0.00  0.00    +0.000 C 
ATOM     10  O   UNL     1      -1.140   5.595  -5.159  0.00  0.00    +0.000 OA
BRANCH   9  11
ATOM     11  O   UNL     1      -2.365   5.509  -3.292  0.00  0.00    +0.000 OA
ATOM     12  H   UNL     1      -2.727   6.245  -2.755  0.00  0.00    +0.000 HD
ENDBRANCH   9  11
ENDBRANCH   8   9
ENDBRANCH   6   7
BRANCH   4  13
ATOM     13  O   UNL     1      -2.566  13.164  -2.876  0.00  0.00    +0.000 OA
ATOM     14  H   UNL     1      -2.847  13.201  -1.955  0.00  0.00    +0.000 HD
ENDBRANCH   4  13
BRANCH   3  15
ATOM     15  O   UNL     1      -5.052  13.402  -4.711  0.00  0.00    +0.000 OA
ATOM     16  C   UNL     1      -6.286  13.301  -5.391  0.00  0.00    +0.000 C 
ENDBRANCH   3  15
TORSDOF 5
ENDMDL
MODEL 7
REMARK VINA RESULT:    -5.334     13.372     16.519
REMARK INTER + INTRA:          -6.786
REMARK INTER:                  -6.582
REMARK INTRA:                  -0.204
REMARK UNBOUND:                -0.204
REMARK  Name = 
REMARK  6 active torsions:
REMARK  status: ('A' for Active; 'I' for Inactive)
REMARK    1  A    between atoms: C_3  and  O_13
REMARK    2  A    between atoms: C_4  and  O_12
REMARK    3  A    between atoms: C_6  and  C_7
REMARK    4  A    between atoms: C_8  and  C_9
REMARK    5  A    between atoms: C_9  and  O_11
REMARK    6  A    between atoms: O_13  and  C_14
REMARK                            x       y       z     vdW  Elec       q    Type
REMARK                         _______ _______ _______ _____ _____    ______ ____
ROOT
ATOM      1  C   UNL     1      -0.592   8.518  -4.245  0.00  0.00    +0.000 A 
ATOM      2  C   UNL     1      -0.829   7.233  -4.753  0.00  0.00    +0.000 A 
ATOM      3  C   UNL     1      -1.938   6.473  -4.357  0.00  0.00    +0.000 A 
ATOM      4  C   UNL     1      -2.815   7.038  -3.426  0.00  0.00    +0.000 A 
ATOM      5  C   UNL     1      -2.574   8.322  -2.915  0.00  0.00    +0.000 A 
ATOM      6  C   UNL     1      -1.473   9.084  -3.325  0.00  0.00    +0.000 A 
ENDROOT
BRANCH   6   7
ATOM      7  C   UNL     1      -1.199  10.426  -2.786  0.00  0.00    +0.000 C 
ATOM      8  C   UNL     1      -0.106  11.141  -3.102  0.00  0.00    +0.000 C 
BRANCH   8   9
ATOM      9  C   UNL     1       0.192  12.482  -2.584  0.00  0.00    +0.000 C 
ATOM     10  O   UNL     1      -0.640  13.355  -2.425  0.00  0.00    +0.000 OA
BRANCH   9  11
ATOM     11  O   UNL     1       1.485  12.680  -2.285  0.00  0.00    +0.000 OA
ATOM     12  H   UNL     1       1.812  11.775  -2.094  0.00  0.00    +0.000 HD
ENDBRANCH   9  11
ENDBRANCH   8   9
ENDBRANCH   6   7
BRANCH   4  13
ATOM     13  O   UNL     1      -3.952   6.470  -2.929  0.00  0.00    +0.000 OA
ATOM     14  H   UNL     1      -4.483   6.116  -3.650  0.00  0.00    +0.000 HD
ENDBRANCH   4  13
BRANCH   3  15
ATOM     15  O   UNL     1      -1.974   5.265  -4.988  0.00  0.00    +0.000 OA
ATOM     16  C   UNL     1      -2.512   5.128  -6.287  0.00  0.00    +0.000 C 
ENDBRANCH   3  15
TORSDOF 5
ENDMDL
MODEL 8
REMARK VINA RESULT:    -5.328     14.150     17.713
REMARK INTER + INTRA:          -6.778
REMARK INTER:                  -6.587
REMARK INTRA:                  -0.191
REMARK UNBOUND:                -0.204
REMARK  Name = 
REMARK  6 active torsions:
REMARK  status: ('A' for Active; 'I' for Inactive)
REMARK    1  A    between atoms: C_3  and  O_13
REMARK    2  A    between atoms: C_4  and  O_12
REMARK    3  A    between atoms: C_6  and  C_7
REMARK    4  A    between atoms: C_8  and  C_9
REMARK    5  A    between atoms: C_9  and  O_11
REMARK    6  A    between atoms: O_13  and  C_14
REMARK                            x       y       z     vdW  Elec       q    Type
REMARK                         _______ _______ _______ _____ _____    ______ ____
ROOT
ATOM      1  C   UNL     1      -0.346   9.695  -3.154  0.00  0.00    +0.000 A 
ATOM      2  C   UNL     1       0.073  11.021  -2.981  0.00  0.00    +0.000 A 
ATOM      3  C   UNL     1      -0.840  12.077  -2.851  0.00  0.00    +0.000 A 
ATOM      4  C   UNL     1      -2.202  11.767  -2.902  0.00  0.00    +0.000 A 
ATOM      5  C   UNL     1      -2.621  10.440  -3.080  0.00  0.00    +0.000 A 
ATOM      6  C   UNL     1      -1.706   9.387  -3.193  0.00  0.00    +0.000 A 
ENDROOT
BRANCH   6   7
ATOM      7  C   UNL     1      -2.129   7.993  -3.396  0.00  0.00    +0.000 C 
ATOM      8  C   UNL     1      -1.753   7.251  -4.452  0.00  0.00    +0.000 C 
BRANCH   8   9
ATOM      9  C   UNL     1      -2.156   5.858  -4.678  0.00  0.00    +0.000 C 
ATOM     10  O   UNL     1      -2.251   5.341  -5.775  0.00  0.00    +0.000 OA
BRANCH   9  11
ATOM     11  O   UNL     1      -2.417   5.173  -3.553  0.00  0.00    +0.000 OA
ATOM     12  H   UNL     1      -3.357   5.387  -3.373  0.00  0.00    +0.000 HD
ENDBRANCH   9  11
ENDBRANCH   8   9
ENDBRANCH   6   7
BRANCH   4  13
ATOM     13  O   UNL     1      -3.241  12.644  -2.781  0.00  0.00    +0.000 OA
ATOM     14  H   UNL     1      -4.075  12.162  -2.749  0.00  0.00    +0.000 HD
ENDBRANCH   4  13
BRANCH   3  15
ATOM     15  O   UNL     1      -0.209  13.273  -2.679  0.00  0.00    +0.000 OA
ATOM     16  C   UNL     1       1.187  13.402  -2.858  0.00  0.00    +0.000 C 
ENDBRANCH   3  15
TORSDOF 5
ENDMDL
MODEL 9
REMARK VINA RESULT:    -5.318     14.676     18.654
REMARK INTER + INTRA:          -6.766
REMARK INTER:                  -6.567
REMARK INTRA:                  -0.199
REMARK UNBOUND:                -0.204
REMARK  Name = 
REMARK  6 active torsions:
REMARK  status: ('A' for Active; 'I' for Inactive)
REMARK    1  A    between atoms: C_3  and  O_13
REMARK    2  A    between atoms: C_4  and  O_12
REMARK    3  A    between atoms: C_6  and  C_7
REMARK    4  A    between atoms: C_8  and  C_9
REMARK    5  A    between atoms: C_9  and  O_11
REMARK    6  A    between atoms: O_13  and  C_14
REMARK                            x       y       z     vdW  Elec       q    Type
REMARK                         _______ _______ _______ _____ _____    ______ ____
ROOT
ATOM      1  C   UNL     1       1.483   8.713  -3.381  0.00  0.00    +0.000 A 
ATOM      2  C   UNL     1       2.704   9.380  -3.549  0.00  0.00    +0.000 A 
ATOM      3  C   UNL     1       2.831  10.759  -3.334  0.00  0.00    +0.000 A 
ATOM      4  C   UNL     1       1.689  11.464  -2.944  0.00  0.00    +0.000 A 
ATOM      5  C   UNL     1       0.465  10.796  -2.780  0.00  0.00    +0.000 A 
ATOM      6  C   UNL     1       0.347   9.416  -2.980  0.00  0.00    +0.000 A 
ENDROOT
BRANCH   6   7
ATOM      7  C   UNL     1      -0.932   8.704  -2.828  0.00  0.00    +0.000 C 
ATOM      8  C   UNL     1      -1.165   7.483  -3.340  0.00  0.00    +0.000 C 
BRANCH   8   9
ATOM      9  C   UNL     1      -2.428   6.749  -3.200  0.00  0.00    +0.000 C 
ATOM     10  O   UNL     1      -3.502   7.270  -2.962  0.00  0.00    +0.000 OA
BRANCH   9  11
ATOM     11  O   UNL     1      -2.312   5.422  -3.362  0.00  0.00    +0.000 OA
ATOM     12  H   UNL     1      -1.684   5.341  -4.111  0.00  0.00    +0.000 HD
ENDBRANCH   9  11
ENDBRANCH   8   9
ENDBRANCH   6   7
BRANCH   4  13
ATOM     13  O   UNL     1       1.608  12.799  -2.673  0.00  0.00    +0.000 OA
ATOM     14  H   UNL     1       2.112  13.297  -3.325  0.00  0.00    +0.000 HD
ENDBRANCH   4  13
BRANCH   3  15
ATOM     15  O   UNL     1       4.108  11.188  -3.543  0.00  0.00    +0.000 OA
ATOM     16  C   UNL     1       5.188  10.280  -3.610  0.00  0.00    +0.000 C 
ENDBRANCH   3  15
TORSDOF 5
ENDMDL
