REMARK  Name = 
REMARK  7 active torsions:
REMARK  status: ('A' for Active; 'I' for Inactive)
REMARK    1  A    between atoms: C_1  and  C_2
REMARK    2  A    between atoms: C_1  and  O_14
REMARK    3  A    between atoms: C_3  and  O_13
REMARK    4  A    between atoms: C_4  and  O_12
REMARK    5  A    between atoms: C_5  and  O_11
REMARK    6  A    between atoms: C_6  and  C_8
REMARK    7  A    between atoms: C_8  and  O_10
REMARK                            x       y       z     vdW  Elec       q    Type
REMARK                         _______ _______ _______ _____ _____    ______ ____
ROOT
ATOM      1  C   UNL     1       0.469  -1.044   0.576  0.00  0.00    +0.000 C 
ATOM      2  C   UNL     1      -0.956  -0.816   0.062  0.00  0.00    +0.000 C 
ATOM      3  C   UNL     1      -1.604   0.424   0.681  0.00  0.00    +0.000 C 
ATOM      4  C   UNL     1      -1.494   0.419   2.218  0.00  0.00    +0.000 C 
ATOM      5  C   UNL     1      -0.075   0.055   2.673  0.00  0.00    +0.000 C 
ATOM      6  O   UNL     1       0.459  -1.102   2.014  0.00  0.00    +0.000 OA
ENDROOT
BRANCH   5   7
ATOM      7  C   UNL     1      -0.076  -0.224   4.174  0.00  0.00    +0.000 C 
ATOM      8  O   UNL     1       0.574   0.379   5.016  0.00  0.00    +0.000 OA
BRANCH   7   9
ATOM      9  O   UNL     1      -0.840  -1.275   4.538  0.00  0.00    +0.000 OA
ATOM     10  H   UNL     1      -0.723  -1.318   5.511  0.00  0.00    +0.000 HD
ENDBRANCH   7   9
ENDBRANCH   5   7
BRANCH   4  11
ATOM     11  O   UNL     1      -1.859   1.700   2.759  0.00  0.00    +0.000 OA
ATOM     12  H   UNL     1      -1.765   2.370   2.059  0.00  0.00    +0.000 HD
ENDBRANCH   4  11
BRANCH   3  13
ATOM     13  O   UNL     1      -2.990   0.475   0.299  0.00  0.00    +0.000 OA
ATOM     14  H   UNL     1      -3.298  -0.456   0.294  0.00  0.00    +0.000 HD
ENDBRANCH   3  13
BRANCH   2  15
ATOM     15  O   UNL     1      -1.775  -1.956   0.413  0.00  0.00    +0.000 OA
ATOM     16  H   UNL     1      -1.445  -2.301   1.267  0.00  0.00    +0.000 HD
ENDBRANCH   2  15
BRANCH   1  17
ATOM     17  C   UNL     1       1.523  -0.070   0.027  0.00  0.00    +0.000 C 
BRANCH  17  18
ATOM     18  O   UNL     1       1.216   1.287   0.318  0.00  0.00    +0.000 OA
ATOM     19  H   UNL     1       2.015   1.690   0.708  0.00  0.00    +0.000 HD
ENDBRANCH  17  18
ENDBRANCH   1  17
TORSDOF 7
