MODEL 1
REMARK VINA RESULT:    -6.587      0.000      0.000
REMARK INTER + INTRA:          -8.633
REMARK INTER:                  -8.341
REMARK INTRA:                  -0.292
REMARK UNBOUND:                -0.313
REMARK  Name = 
REMARK  7 active torsions:
REMARK  status: ('A' for Active; 'I' for Inactive)
REMARK    1  A    between atoms: C_1  and  C_2
REMARK    2  A    between atoms: C_1  and  O_14
REMARK    3  A    between atoms: C_3  and  O_13
REMARK    4  A    between atoms: C_4  and  O_12
REMARK    5  A    between atoms: C_5  and  O_11
REMARK    6  A    between atoms: C_6  and  C_8
REMARK    7  A    between atoms: C_8  and  O_10
REMARK                            x       y       z     vdW  Elec       q    Type
REMARK                         _______ _______ _______ _____ _____    ______ ____
ROOT
ATOM      1  C   UNL     1     -11.357  -6.436  -5.073  0.00  0.00    +0.000 C 
ATOM      2  C   UNL     1      -9.842  -6.214  -5.102  0.00  0.00    +0.000 C 
ATOM      3  C   UNL     1      -9.141  -6.841  -3.895  0.00  0.00    +0.000 C 
ATOM      4  C   UNL     1      -9.803  -6.419  -2.569  0.00  0.00    +0.000 C 
ATOM      5  C   UNL     1     -11.330  -6.539  -2.646  0.00  0.00    +0.000 C 
ATOM      6  O   UNL     1     -11.892  -5.951  -3.828  0.00  0.00    +0.000 OA
ENDROOT
BRANCH   5   7
ATOM      7  C   UNL     1     -11.958  -5.847  -1.439  0.00  0.00    +0.000 C 
ATOM      8  O   UNL     1     -13.036  -6.126  -0.933  0.00  0.00    +0.000 OA
BRANCH   7   9
ATOM      9  O   UNL     1     -11.240  -4.808  -0.964  0.00  0.00    +0.000 OA
ATOM     10  H   UNL     1     -10.375  -5.212  -0.737  0.00  0.00    +0.000 HD
ENDBRANCH   7   9
ENDBRANCH   5   7
BRANCH   4  11
ATOM     11  O   UNL     1      -9.312  -7.218  -1.479  0.00  0.00    +0.000 OA
ATOM     12  H   UNL     1      -8.339  -7.188  -1.486  0.00  0.00    +0.000 HD
ENDBRANCH   4  11
BRANCH   3  13
ATOM     13  O   UNL     1      -7.759  -6.442  -3.890  0.00  0.00    +0.000 OA
ATOM     14  H   UNL     1      -7.742  -5.540  -4.275  0.00  0.00    +0.000 HD
ENDBRANCH   3  13
BRANCH   2  15
ATOM     15  O   UNL     1      -9.570  -4.794  -5.075  0.00  0.00    +0.000 OA
ATOM     16  H   UNL     1      -9.852  -4.459  -4.199  0.00  0.00    +0.000 HD
ENDBRANCH   2  15
BRANCH   1  17
ATOM     17  C   UNL     1     -11.812  -7.867  -5.398  0.00  0.00    +0.000 C 
BRANCH  17  18
ATOM     18  O   UNL     1     -12.172  -8.029  -6.764  0.00  0.00    +0.000 OA
ATOM     19  H   UNL     1     -12.137  -7.147  -7.181  0.00  0.00    +0.000 HD
ENDBRANCH  17  18
ENDBRANCH   1  17
TORSDOF 7
ENDMDL
MODEL 2
REMARK VINA RESULT:    -5.887      3.388      5.234
REMARK INTER + INTRA:          -7.749
REMARK INTER:                  -7.437
REMARK INTRA:                  -0.311
REMARK UNBOUND:                -0.313
REMARK  Name = 
REMARK  7 active torsions:
REMARK  status: ('A' for Active; 'I' for Inactive)
REMARK    1  A    between atoms: C_1  and  C_2
REMARK    2  A    between atoms: C_1  and  O_14
REMARK    3  A    between atoms: C_3  and  O_13
REMARK    4  A    between atoms: C_4  and  O_12
REMARK    5  A    between atoms: C_5  and  O_11
REMARK    6  A    between atoms: C_6  and  C_8
REMARK    7  A    between atoms: C_8  and  O_10
REMARK                            x       y       z     vdW  Elec       q    Type
REMARK                         _______ _______ _______ _____ _____    ______ ____
ROOT
ATOM      1  C   UNL     1      -5.327  -6.470  -5.435  0.00  0.00    +0.000 C 
ATOM      2  C   UNL     1      -4.769  -5.096  -5.050  0.00  0.00    +0.000 C 
ATOM      3  C   UNL     1      -5.515  -4.479  -3.866  0.00  0.00    +0.000 C 
ATOM      4  C   UNL     1      -7.041  -4.487  -4.085  0.00  0.00    +0.000 C 
ATOM      5  C   UNL     1      -7.521  -5.851  -4.597  0.00  0.00    +0.000 C 
ATOM      6  O   UNL     1      -6.740  -6.363  -5.686  0.00  0.00    +0.000 OA
ENDROOT
BRANCH   5   7
ATOM      7  C   UNL     1      -8.967  -5.736  -5.075  0.00  0.00    +0.000 C 
ATOM      8  O   UNL     1      -9.767  -6.656  -5.166  0.00  0.00    +0.000 OA
BRANCH   7   9
ATOM      9  O   UNL     1      -9.319  -4.495  -5.469  0.00  0.00    +0.000 OA
ATOM     10  H   UNL     1      -9.500  -4.600  -6.427  0.00  0.00    +0.000 HD
ENDBRANCH   7   9
ENDBRANCH   5   7
BRANCH   4  11
ATOM     11  O   UNL     1      -7.732  -4.159  -2.868  0.00  0.00    +0.000 OA
ATOM     12  H   UNL     1      -8.661  -3.963  -3.083  0.00  0.00    +0.000 HD
ENDBRANCH   4  11
BRANCH   3  13
ATOM     13  O   UNL     1      -5.065  -3.126  -3.676  0.00  0.00    +0.000 OA
ATOM     14  H   UNL     1      -4.878  -3.041  -2.717  0.00  0.00    +0.000 HD
ENDBRANCH   3  13
BRANCH   2  15
ATOM     15  O   UNL     1      -4.911  -4.195  -6.172  0.00  0.00    +0.000 OA
ATOM     16  H   UNL     1      -4.179  -4.384  -6.794  0.00  0.00    +0.000 HD
ENDBRANCH   2  15
BRANCH   1  17
ATOM     17  C   UNL     1      -4.980  -7.610  -4.465  0.00  0.00    +0.000 C 
BRANCH  17  18
ATOM     18  O   UNL     1      -4.605  -8.804  -5.138  0.00  0.00    +0.000 OA
ATOM     19  H   UNL     1      -4.067  -9.333  -4.518  0.00  0.00    +0.000 HD
ENDBRANCH  17  18
ENDBRANCH   1  17
TORSDOF 7
ENDMDL
MODEL 3
REMARK VINA RESULT:    -5.472     15.626     17.052
REMARK INTER + INTRA:          -7.225
REMARK INTER:                  -6.880
REMARK INTRA:                  -0.345
REMARK UNBOUND:                -0.313
REMARK  Name = 
REMARK  7 active torsions:
REMARK  status: ('A' for Active; 'I' for Inactive)
REMARK    1  A    between atoms: C_1  and  C_2
REMARK    2  A    between atoms: C_1  and  O_14
REMARK    3  A    between atoms: C_3  and  O_13
REMARK    4  A    between atoms: C_4  and  O_12
REMARK    5  A    between atoms: C_5  and  O_11
REMARK    6  A    between atoms: C_6  and  C_8
REMARK    7  A    between atoms: C_8  and  O_10
REMARK                            x       y       z     vdW  Elec       q    Type
REMARK                         _______ _______ _______ _____ _____    ______ ____
ROOT
ATOM      1  C   UNL     1      -0.556   6.668  -4.424  0.00  0.00    +0.000 C 
ATOM      2  C   UNL     1      -1.899   5.942  -4.541  0.00  0.00    +0.000 C 
ATOM      3  C   UNL     1      -3.000   6.846  -5.099  0.00  0.00    +0.000 C 
ATOM      4  C   UNL     1      -3.084   8.182  -4.336  0.00  0.00    +0.000 C 
ATOM      5  C   UNL     1      -1.693   8.795  -4.135  0.00  0.00    +0.000 C 
ATOM      6  O   UNL     1      -0.721   7.863  -3.639  0.00  0.00    +0.000 OA
ENDROOT
BRANCH   5   7
ATOM      7  C   UNL     1      -1.782   9.947  -3.137  0.00  0.00    +0.000 C 
ATOM      8  O   UNL     1      -2.813  10.431  -2.690  0.00  0.00    +0.000 OA
BRANCH   7   9
ATOM      9  O   UNL     1      -0.588  10.474  -2.795  0.00  0.00    +0.000 OA
ATOM     10  H   UNL     1       0.035  10.062  -3.431  0.00  0.00    +0.000 HD
ENDBRANCH   7   9
ENDBRANCH   5   7
BRANCH   4  11
ATOM     11  O   UNL     1      -3.925   9.115  -5.034  0.00  0.00    +0.000 OA
ATOM     12  H   UNL     1      -3.483   9.982  -5.045  0.00  0.00    +0.000 HD
ENDBRANCH   4  11
BRANCH   3  13
ATOM     13  O   UNL     1      -4.264   6.163  -5.012  0.00  0.00    +0.000 OA
ATOM     14  H   UNL     1      -4.859   6.626  -5.639  0.00  0.00    +0.000 HD
ENDBRANCH   3  13
BRANCH   2  15
ATOM     15  O   UNL     1      -2.319   5.505  -3.227  0.00  0.00    +0.000 OA
ATOM     16  H   UNL     1      -2.865   6.220  -2.842  0.00  0.00    +0.000 HD
ENDBRANCH   2  15
BRANCH   1  17
ATOM     17  C   UNL     1       0.164   6.926  -5.757  0.00  0.00    +0.000 C 
BRANCH  17  18
ATOM     18  O   UNL     1       0.220   5.768  -6.579  0.00  0.00    +0.000 OA
ATOM     19  H   UNL     1      -0.695   5.546  -6.835  0.00  0.00    +0.000 HD
ENDBRANCH  17  18
ENDBRANCH   1  17
TORSDOF 7
ENDMDL
MODEL 4
REMARK VINA RESULT:    -5.243      4.305      7.011
REMARK INTER + INTRA:          -6.935
REMARK INTER:                  -7.031
REMARK INTRA:                   0.096
REMARK UNBOUND:                -0.313
REMARK  Name = 
REMARK  7 active torsions:
REMARK  status: ('A' for Active; 'I' for Inactive)
REMARK    1  A    between atoms: C_1  and  C_2
REMARK    2  A    between atoms: C_1  and  O_14
REMARK    3  A    between atoms: C_3  and  O_13
REMARK    4  A    between atoms: C_4  and  O_12
REMARK    5  A    between atoms: C_5  and  O_11
REMARK    6  A    between atoms: C_6  and  C_8
REMARK    7  A    between atoms: C_8  and  O_10
REMARK                            x       y       z     vdW  Elec       q    Type
REMARK                         _______ _______ _______ _____ _____    ______ ____
ROOT
ATOM      1  C   UNL     1      -6.374  -3.895  -5.385  0.00  0.00    +0.000 C 
ATOM      2  C   UNL     1      -7.237  -4.948  -4.684  0.00  0.00    +0.000 C 
ATOM      3  C   UNL     1      -6.461  -6.236  -4.398  0.00  0.00    +0.000 C 
ATOM      4  C   UNL     1      -5.744  -6.762  -5.656  0.00  0.00    +0.000 C 
ATOM      5  C   UNL     1      -5.006  -5.634  -6.388  0.00  0.00    +0.000 C 
ATOM      6  O   UNL     1      -5.804  -4.458  -6.581  0.00  0.00    +0.000 OA
ENDROOT
BRANCH   5   7
ATOM      7  C   UNL     1      -4.560  -6.124  -7.763  0.00  0.00    +0.000 C 
ATOM      8  O   UNL     1      -5.167  -5.965  -8.813  0.00  0.00    +0.000 OA
BRANCH   7   9
ATOM      9  O   UNL     1      -3.413  -6.836  -7.749  0.00  0.00    +0.000 OA
ATOM     10  H   UNL     1      -2.804  -6.300  -8.300  0.00  0.00    +0.000 HD
ENDBRANCH   7   9
ENDBRANCH   5   7
BRANCH   4  11
ATOM     11  O   UNL     1      -4.814  -7.803  -5.314  0.00  0.00    +0.000 OA
ATOM     12  H   UNL     1      -5.291  -8.652  -5.297  0.00  0.00    +0.000 HD
ENDBRANCH   4  11
BRANCH   3  13
ATOM     13  O   UNL     1      -7.371  -7.238  -3.909  0.00  0.00    +0.000 OA
ATOM     14  H   UNL     1      -7.883  -6.805  -3.194  0.00  0.00    +0.000 HD
ENDBRANCH   3  13
BRANCH   2  15
ATOM     15  O   UNL     1      -8.353  -5.293  -5.538  0.00  0.00    +0.000 OA
ATOM     16  H   UNL     1      -8.989  -4.550  -5.501  0.00  0.00    +0.000 HD
ENDBRANCH   2  15
BRANCH   1  17
ATOM     17  C   UNL     1      -5.327  -3.210  -4.492  0.00  0.00    +0.000 C 
BRANCH  17  18
ATOM     18  O   UNL     1      -4.939  -4.018  -3.389  0.00  0.00    +0.000 OA
ATOM     19  H   UNL     1      -4.177  -3.582  -2.962  0.00  0.00    +0.000 HD
ENDBRANCH  17  18
ENDBRANCH   1  17
TORSDOF 7
ENDMDL
MODEL 5
REMARK VINA RESULT:    -5.231     15.364     17.079
REMARK INTER + INTRA:          -6.920
REMARK INTER:                  -6.597
REMARK INTRA:                  -0.323
REMARK UNBOUND:                -0.313
REMARK  Name = 
REMARK  7 active torsions:
REMARK  status: ('A' for Active; 'I' for Inactive)
REMARK    1  A    between atoms: C_1  and  C_2
REMARK    2  A    between atoms: C_1  and  O_14
REMARK    3  A    between atoms: C_3  and  O_13
REMARK    4  A    between atoms: C_4  and  O_12
REMARK    5  A    between atoms: C_5  and  O_11
REMARK    6  A    between atoms: C_6  and  C_8
REMARK    7  A    between atoms: C_8  and  O_10
REMARK                            x       y       z     vdW  Elec       q    Type
REMARK                         _______ _______ _______ _____ _____    ______ ____
ROOT
ATOM      1  C   UNL     1      -2.107   8.969  -3.409  0.00  0.00    +0.000 C 
ATOM      2  C   UNL     1      -3.528   8.457  -3.668  0.00  0.00    +0.000 C 
ATOM      3  C   UNL     1      -3.569   6.941  -3.874  0.00  0.00    +0.000 C 
ATOM      4  C   UNL     1      -2.542   6.479  -4.926  0.00  0.00    +0.000 C 
ATOM      5  C   UNL     1      -1.173   7.129  -4.690  0.00  0.00    +0.000 C 
ATOM      6  O   UNL     1      -1.240   8.546  -4.476  0.00  0.00    +0.000 OA
ENDROOT
BRANCH   5   7
ATOM      7  C   UNL     1      -0.276   6.884  -5.901  0.00  0.00    +0.000 C 
ATOM      8  O   UNL     1       0.931   7.072  -5.949  0.00  0.00    +0.000 OA
BRANCH   7   9
ATOM      9  O   UNL     1      -0.938   6.473  -7.003  0.00  0.00    +0.000 OA
ATOM     10  H   UNL     1      -0.486   5.638  -7.245  0.00  0.00    +0.000 HD
ENDBRANCH   7   9
ENDBRANCH   5   7
BRANCH   4  11
ATOM     11  O   UNL     1      -2.405   5.048  -4.910  0.00  0.00    +0.000 OA
ATOM     12  H   UNL     1      -1.884   4.778  -5.687  0.00  0.00    +0.000 HD
ENDBRANCH   4  11
BRANCH   3  13
ATOM     13  O   UNL     1      -4.890   6.555  -4.290  0.00  0.00    +0.000 OA
ATOM     14  H   UNL     1      -5.500   7.190  -3.859  0.00  0.00    +0.000 HD
ENDBRANCH   3  13
BRANCH   2  15
ATOM     15  O   UNL     1      -4.042   9.073  -4.872  0.00  0.00    +0.000 OA
ATOM     16  H   UNL     1      -4.031  10.041  -4.733  0.00  0.00    +0.000 HD
ENDBRANCH   2  15
BRANCH   1  17
ATOM     17  C   UNL     1      -1.542   8.643  -2.018  0.00  0.00    +0.000 C 
BRANCH  17  18
ATOM     18  O   UNL     1      -0.148   8.904  -1.921  0.00  0.00    +0.000 OA
ATOM     19  H   UNL     1       0.285   8.077  -1.637  0.00  0.00    +0.000 HD
ENDBRANCH  17  18
ENDBRANCH   1  17
TORSDOF 7
ENDMDL
MODEL 6
REMARK VINA RESULT:    -5.230      9.960     11.986
REMARK INTER + INTRA:          -6.919
REMARK INTER:                  -6.589
REMARK INTRA:                  -0.331
REMARK UNBOUND:                -0.313
REMARK  Name = 
REMARK  7 active torsions:
REMARK  status: ('A' for Active; 'I' for Inactive)
REMARK    1  A    between atoms: C_1  and  C_2
REMARK    2  A    between atoms: C_1  and  O_14
REMARK    3  A    between atoms: C_3  and  O_13
REMARK    4  A    between atoms: C_4  and  O_12
REMARK    5  A    between atoms: C_5  and  O_11
REMARK    6  A    between atoms: C_6  and  C_8
REMARK    7  A    between atoms: C_8  and  O_10
REMARK                            x       y       z     vdW  Elec       q    Type
REMARK                         _______ _______ _______ _____ _____    ______ ____
ROOT
ATOM      1  C   UNL     1      -4.933  -3.311 -12.807  0.00  0.00    +0.000 C 
ATOM      2  C   UNL     1      -4.752  -4.360 -11.705  0.00  0.00    +0.000 C 
ATOM      3  C   UNL     1      -4.055  -3.787 -10.469  0.00  0.00    +0.000 C 
ATOM      4  C   UNL     1      -2.756  -3.046 -10.837  0.00  0.00    +0.000 C 
ATOM      5  C   UNL     1      -2.969  -2.108 -12.032  0.00  0.00    +0.000 C 
ATOM      6  O   UNL     1      -3.658  -2.726 -13.129  0.00  0.00    +0.000 OA
ENDROOT
BRANCH   5   7
ATOM      7  C   UNL     1      -1.617  -1.621 -12.547  0.00  0.00    +0.000 C 
ATOM      8  O   UNL     1      -1.087  -1.955 -13.597  0.00  0.00    +0.000 OA
BRANCH   7   9
ATOM      9  O   UNL     1      -0.973  -0.791 -11.701  0.00  0.00    +0.000 OA
ATOM     10  H   UNL     1      -0.814   0.011 -12.243  0.00  0.00    +0.000 HD
ENDBRANCH   7   9
ENDBRANCH   5   7
BRANCH   4  11
ATOM     11  O   UNL     1      -2.264  -2.292  -9.716  0.00  0.00    +0.000 OA
ATOM     12  H   UNL     1      -1.803  -2.901  -9.111  0.00  0.00    +0.000 HD
ENDBRANCH   4  11
BRANCH   3  13
ATOM     13  O   UNL     1      -3.755  -4.858  -9.555  0.00  0.00    +0.000 OA
ATOM     14  H   UNL     1      -2.991  -5.333  -9.946  0.00  0.00    +0.000 HD
ENDBRANCH   3  13
BRANCH   2  15
ATOM     15  O   UNL     1      -3.929  -5.439 -12.207  0.00  0.00    +0.000 OA
ATOM     16  H   UNL     1      -4.395  -5.830 -12.973  0.00  0.00    +0.000 HD
ENDBRANCH   2  15
BRANCH   1  17
ATOM     17  C   UNL     1      -6.019  -2.259 -12.533  0.00  0.00    +0.000 C 
BRANCH  17  18
ATOM     18  O   UNL     1      -7.263  -2.842 -12.168  0.00  0.00    +0.000 OA
ATOM     19  H   UNL     1      -7.663  -3.208 -12.979  0.00  0.00    +0.000 HD
ENDBRANCH  17  18
ENDBRANCH   1  17
TORSDOF 7
ENDMDL
MODEL 7
REMARK VINA RESULT:    -5.072     10.449     12.319
REMARK INTER + INTRA:          -6.719
REMARK INTER:                  -6.402
REMARK INTRA:                  -0.317
REMARK UNBOUND:                -0.313
REMARK  Name = 
REMARK  7 active torsions:
REMARK  status: ('A' for Active; 'I' for Inactive)
REMARK    1  A    between atoms: C_1  and  C_2
REMARK    2  A    between atoms: C_1  and  O_14
REMARK    3  A    between atoms: C_3  and  O_13
REMARK    4  A    between atoms: C_4  and  O_12
REMARK    5  A    between atoms: C_5  and  O_11
REMARK    6  A    between atoms: C_6  and  C_8
REMARK    7  A    between atoms: C_8  and  O_10
REMARK                            x       y       z     vdW  Elec       q    Type
REMARK                         _______ _______ _______ _____ _____    ______ ____
ROOT
ATOM      1  C   UNL     1      -1.470  -2.978 -12.486  0.00  0.00    +0.000 C 
ATOM      2  C   UNL     1      -1.682  -3.828 -11.229  0.00  0.00    +0.000 C 
ATOM      3  C   UNL     1      -3.156  -4.172 -11.003  0.00  0.00    +0.000 C 
ATOM      4  C   UNL     1      -4.051  -2.919 -11.061  0.00  0.00    +0.000 C 
ATOM      5  C   UNL     1      -3.701  -2.041 -12.270  0.00  0.00    +0.000 C 
ATOM      6  O   UNL     1      -2.295  -1.800 -12.416  0.00  0.00    +0.000 OA
ENDROOT
BRANCH   5   7
ATOM      7  C   UNL     1      -4.393  -0.687 -12.134  0.00  0.00    +0.000 C 
ATOM      8  O   UNL     1      -4.374   0.214 -12.961  0.00  0.00    +0.000 OA
BRANCH   7   9
ATOM      9  O   UNL     1      -5.022  -0.506 -10.954  0.00  0.00    +0.000 OA
ATOM     10  H   UNL     1      -4.623  -1.189 -10.374  0.00  0.00    +0.000 HD
ENDBRANCH   7   9
ENDBRANCH   5   7
BRANCH   4  11
ATOM     11  O   UNL     1      -5.439  -3.287 -11.119  0.00  0.00    +0.000 OA
ATOM     12  H   UNL     1      -5.612  -3.711 -11.978  0.00  0.00    +0.000 HD
ENDBRANCH   4  11
BRANCH   3  13
ATOM     13  O   UNL     1      -3.303  -4.809  -9.722  0.00  0.00    +0.000 OA
ATOM     14  H   UNL     1      -2.403  -5.105  -9.468  0.00  0.00    +0.000 HD
ENDBRANCH   3  13
BRANCH   2  15
ATOM     15  O   UNL     1      -1.227  -3.086 -10.072  0.00  0.00    +0.000 OA
ATOM     16  H   UNL     1      -2.021  -2.743  -9.615  0.00  0.00    +0.000 HD
ENDBRANCH   2  15
BRANCH   1  17
ATOM     17  C   UNL     1      -1.623  -3.733 -13.815  0.00  0.00    +0.000 C 
BRANCH  17  18
ATOM     18  O   UNL     1      -0.525  -4.596 -14.081  0.00  0.00    +0.000 OA
ATOM     19  H   UNL     1       0.250  -4.034 -14.267  0.00  0.00    +0.000 HD
ENDBRANCH  17  18
ENDBRANCH   1  17
TORSDOF 7
ENDMDL
MODEL 8
REMARK VINA RESULT:    -5.047      9.772     11.122
REMARK INTER + INTRA:          -6.688
REMARK INTER:                  -6.392
REMARK INTRA:                  -0.296
REMARK UNBOUND:                -0.313
REMARK  Name = 
REMARK  7 active torsions:
REMARK  status: ('A' for Active; 'I' for Inactive)
REMARK    1  A    between atoms: C_1  and  C_2
REMARK    2  A    between atoms: C_1  and  O_14
REMARK    3  A    between atoms: C_3  and  O_13
REMARK    4  A    between atoms: C_4  and  O_12
REMARK    5  A    between atoms: C_5  and  O_11
REMARK    6  A    between atoms: C_6  and  C_8
REMARK    7  A    between atoms: C_8  and  O_10
REMARK                            x       y       z     vdW  Elec       q    Type
REMARK                         _______ _______ _______ _____ _____    ______ ____
ROOT
ATOM      1  C   UNL     1      -4.531  -1.630 -11.490  0.00  0.00    +0.000 C 
ATOM      2  C   UNL     1      -3.713  -2.461 -10.496  0.00  0.00    +0.000 C 
ATOM      3  C   UNL     1      -3.391  -3.856 -11.036  0.00  0.00    +0.000 C 
ATOM      4  C   UNL     1      -4.652  -4.574 -11.553  0.00  0.00    +0.000 C 
ATOM      5  C   UNL     1      -5.497  -3.647 -12.436  0.00  0.00    +0.000 C 
ATOM      6  O   UNL     1      -5.719  -2.352 -11.860  0.00  0.00    +0.000 OA
ENDROOT
BRANCH   5   7
ATOM      7  C   UNL     1      -6.862  -4.285 -12.686  0.00  0.00    +0.000 C 
ATOM      8  O   UNL     1      -7.583  -4.080 -13.653  0.00  0.00    +0.000 OA
BRANCH   7   9
ATOM      9  O   UNL     1      -7.280  -5.096 -11.693  0.00  0.00    +0.000 OA
ATOM     10  H   UNL     1      -7.989  -5.628 -12.114  0.00  0.00    +0.000 HD
ENDBRANCH   7   9
ENDBRANCH   5   7
BRANCH   4  11
ATOM     11  O   UNL     1      -4.298  -5.754 -12.295  0.00  0.00    +0.000 OA
ATOM     12  H   UNL     1      -3.404  -5.635 -12.659  0.00  0.00    +0.000 HD
ENDBRANCH   4  11
BRANCH   3  13
ATOM     13  O   UNL     1      -2.786  -4.640  -9.992  0.00  0.00    +0.000 OA
ATOM     14  H   UNL     1      -2.462  -5.457 -10.427  0.00  0.00    +0.000 HD
ENDBRANCH   3  13
BRANCH   2  15
ATOM     15  O   UNL     1      -4.477  -2.632  -9.279  0.00  0.00    +0.000 OA
ATOM     16  H   UNL     1      -5.424  -2.578  -9.518  0.00  0.00    +0.000 HD
ENDBRANCH   2  15
BRANCH   1  17
ATOM     17  C   UNL     1      -3.747  -1.111 -12.705  0.00  0.00    +0.000 C 
BRANCH  17  18
ATOM     18  O   UNL     1      -3.421   0.268 -12.596  0.00  0.00    +0.000 OA
ATOM     19  H   UNL     1      -2.593   0.413 -13.092  0.00  0.00    +0.000 HD
ENDBRANCH  17  18
ENDBRANCH   1  17
TORSDOF 7
ENDMDL
MODEL 9
REMARK VINA RESULT:    -4.969     16.379     17.579
REMARK INTER + INTRA:          -6.589
REMARK INTER:                  -6.276
REMARK INTRA:                  -0.313
REMARK UNBOUND:                -0.313
REMARK  Name = 
REMARK  7 active torsions:
REMARK  status: ('A' for Active; 'I' for Inactive)
REMARK    1  A    between atoms: C_1  and  C_2
REMARK    2  A    between atoms: C_1  and  O_14
REMARK    3  A    between atoms: C_3  and  O_13
REMARK    4  A    between atoms: C_4  and  O_12
REMARK    5  A    between atoms: C_5  and  O_11
REMARK    6  A    between atoms: C_6  and  C_8
REMARK    7  A    between atoms: C_8  and  O_10
REMARK                            x       y       z     vdW  Elec       q    Type
REMARK                         _______ _______ _______ _____ _____    ______ ____
ROOT
ATOM      1  C   UNL     1      -2.849   7.610  -4.543  0.00  0.00    +0.000 C 
ATOM      2  C   UNL     1      -1.512   6.881  -4.708  0.00  0.00    +0.000 C 
ATOM      3  C   UNL     1      -0.569   7.129  -3.529  0.00  0.00    +0.000 C 
ATOM      4  C   UNL     1      -0.421   8.631  -3.221  0.00  0.00    +0.000 C 
ATOM      5  C   UNL     1      -1.785   9.332  -3.200  0.00  0.00    +0.000 C 
ATOM      6  O   UNL     1      -2.611   9.013  -4.329  0.00  0.00    +0.000 OA
ENDROOT
BRANCH   5   7
ATOM      7  C   UNL     1      -1.582  10.845  -3.185  0.00  0.00    +0.000 C 
ATOM      8  O   UNL     1      -0.510  11.424  -3.084  0.00  0.00    +0.000 OA
BRANCH   7   9
ATOM      9  O   UNL     1      -2.729  11.555  -3.236  0.00  0.00    +0.000 OA
ATOM     10  H   UNL     1      -3.422  10.884  -3.060  0.00  0.00    +0.000 HD
ENDBRANCH   7   9
ENDBRANCH   5   7
BRANCH   4  11
ATOM     11  O   UNL     1       0.242   8.830  -1.961  0.00  0.00    +0.000 OA
ATOM     12  H   UNL     1      -0.432   9.008  -1.281  0.00  0.00    +0.000 HD
ENDBRANCH   4  11
BRANCH   3  13
ATOM     13  O   UNL     1       0.723   6.571  -3.831  0.00  0.00    +0.000 OA
ATOM     14  H   UNL     1       1.294   6.796  -3.066  0.00  0.00    +0.000 HD
ENDBRANCH   3  13
BRANCH   2  15
ATOM     15  O   UNL     1      -0.852   7.364  -5.902  0.00  0.00    +0.000 OA
ATOM     16  H   UNL     1      -1.185   6.834  -6.654  0.00  0.00    +0.000 HD
ENDBRANCH   2  15
BRANCH   1  17
ATOM     17  C   UNL     1      -3.799   7.002  -3.499  0.00  0.00    +0.000 C 
BRANCH  17  18
ATOM     18  O   UNL     1      -5.000   6.507  -4.076  0.00  0.00    +0.000 OA
ATOM     19  H   UNL     1      -4.999   6.765  -5.017  0.00  0.00    +0.000 HD
ENDBRANCH  17  18
ENDBRANCH   1  17
TORSDOF 7
ENDMDL
