MODEL 1
REMARK VINA RESULT:    -6.419      0.000      0.000
REMARK INTER + INTRA:          -7.978
REMARK INTER:                  -7.752
REMARK INTRA:                  -0.226
REMARK UNBOUND:                -0.245
REMARK  Name = 
REMARK  6 active torsions:
REMARK  status: ('A' for Active; 'I' for Inactive)
REMARK    1  A    between atoms: C_1  and  C_2
REMARK    2  A    between atoms: C_1  and  O_12
REMARK    3  A    between atoms: C_3  and  O_11
REMARK    4  A    between atoms: C_4  and  O_10
REMARK    5  A    between atoms: C_5  and  O_9
REMARK    6  A    between atoms: C_6  and  O_8
REMARK                            x       y       z     vdW  Elec       q    Type
REMARK                         _______ _______ _______ _____ _____    ______ ____
ROOT
ATOM      1  C   UNL     1     -11.541  -6.325  -2.308  0.00  0.00    +0.000 C 
ATOM      2  C   UNL     1     -10.010  -6.432  -2.465  0.00  0.00    +0.000 C 
ATOM      3  C   UNL     1      -9.647  -7.133  -3.781  0.00  0.00    +0.000 C 
ATOM      4  C   UNL     1     -10.421  -6.558  -4.965  0.00  0.00    +0.000 C 
ATOM      5  C   UNL     1     -11.921  -6.571  -4.633  0.00  0.00    +0.000 C 
ATOM      6  O   UNL     1     -12.136  -5.756  -3.483  0.00  0.00    +0.000 OA
ENDROOT
BRANCH   5   7
ATOM      7  O   UNL     1     -12.674  -6.037  -5.707  0.00  0.00    +0.000 OA
ATOM      8  H   UNL     1     -12.658  -5.067  -5.609  0.00  0.00    +0.000 HD
ENDBRANCH   5   7
BRANCH   4   9
ATOM      9  O   UNL     1      -9.985  -5.200  -5.196  0.00  0.00    +0.000 OA
ATOM     10  H   UNL     1      -9.261  -5.239  -5.855  0.00  0.00    +0.000 HD
ENDBRANCH   4   9
BRANCH   3  11
ATOM     11  O   UNL     1      -8.231  -6.999  -3.988  0.00  0.00    +0.000 OA
ATOM     12  H   UNL     1      -8.032  -7.466  -4.825  0.00  0.00    +0.000 HD
ENDBRANCH   3  11
BRANCH   2  13
ATOM     13  O   UNL     1      -9.457  -7.156  -1.358  0.00  0.00    +0.000 OA
ATOM     14  H   UNL     1      -9.438  -8.100  -1.628  0.00  0.00    +0.000 HD
ENDBRANCH   2  13
BRANCH   1  15
ATOM     15  C   UNL     1     -11.909  -5.455  -1.095  0.00  0.00    +0.000 C 
BRANCH  15  16
ATOM     16  O   UNL     1     -10.918  -4.478  -0.802  0.00  0.00    +0.000 OA
ATOM     17  H   UNL     1     -10.056  -4.827  -1.111  0.00  0.00    +0.000 HD
ENDBRANCH  15  16
ENDBRANCH   1  15
TORSDOF 6
ENDMDL
MODEL 2
REMARK VINA RESULT:    -5.367     15.838     16.660
REMARK INTER + INTRA:          -6.711
REMARK INTER:                  -6.465
REMARK INTRA:                  -0.246
REMARK UNBOUND:                -0.245
REMARK  Name = 
REMARK  6 active torsions:
REMARK  status: ('A' for Active; 'I' for Inactive)
REMARK    1  A    between atoms: C_1  and  C_2
REMARK    2  A    between atoms: C_1  and  O_12
REMARK    3  A    between atoms: C_3  and  O_11
REMARK    4  A    between atoms: C_4  and  O_10
REMARK    5  A    between atoms: C_5  and  O_9
REMARK    6  A    between atoms: C_6  and  O_8
REMARK                            x       y       z     vdW  Elec       q    Type
REMARK                         _______ _______ _______ _____ _____    ______ ____
ROOT
ATOM      1  C   UNL     1      -1.889   8.802  -3.849  0.00  0.00    +0.000 C 
ATOM      2  C   UNL     1      -3.135   8.071  -4.390  0.00  0.00    +0.000 C 
ATOM      3  C   UNL     1      -2.729   6.829  -5.195  0.00  0.00    +0.000 C 
ATOM      4  C   UNL     1      -1.703   5.978  -4.451  0.00  0.00    +0.000 C 
ATOM      5  C   UNL     1      -0.526   6.872  -4.030  0.00  0.00    +0.000 C 
ATOM      6  O   UNL     1      -1.021   7.889  -3.161  0.00  0.00    +0.000 OA
ENDROOT
BRANCH   5   7
ATOM      7  O   UNL     1       0.446   6.119  -3.329  0.00  0.00    +0.000 OA
ATOM      8  H   UNL     1       0.407   6.403  -2.397  0.00  0.00    +0.000 HD
ENDBRANCH   5   7
BRANCH   4   9
ATOM      9  O   UNL     1      -2.326   5.409  -3.278  0.00  0.00    +0.000 OA
ATOM     10  H   UNL     1      -3.158   4.984  -3.573  0.00  0.00    +0.000 HD
ENDBRANCH   4   9
BRANCH   3  11
ATOM     11  O   UNL     1      -3.914   6.065  -5.474  0.00  0.00    +0.000 OA
ATOM     12  H   UNL     1      -4.169   5.638  -4.630  0.00  0.00    +0.000 HD
ENDBRANCH   3  11
BRANCH   2  13
ATOM     13  O   UNL     1      -3.900   8.959  -5.216  0.00  0.00    +0.000 OA
ATOM     14  H   UNL     1      -3.878   9.835  -4.773  0.00  0.00    +0.000 HD
ENDBRANCH   2  13
BRANCH   1  15
ATOM     15  C   UNL     1      -2.290   9.928  -2.883  0.00  0.00    +0.000 C 
BRANCH  15  16
ATOM     16  O   UNL     1      -2.767  11.085  -3.559  0.00  0.00    +0.000 OA
ATOM     17  H   UNL     1      -2.725  10.905  -4.522  0.00  0.00    +0.000 HD
ENDBRANCH  15  16
ENDBRANCH   1  15
TORSDOF 6
ENDMDL
MODEL 3
REMARK VINA RESULT:    -5.358      3.871      5.521
REMARK INTER + INTRA:          -6.700
REMARK INTER:                  -6.465
REMARK INTRA:                  -0.234
REMARK UNBOUND:                -0.245
REMARK  Name = 
REMARK  6 active torsions:
REMARK  status: ('A' for Active; 'I' for Inactive)
REMARK    1  A    between atoms: C_1  and  C_2
REMARK    2  A    between atoms: C_1  and  O_12
REMARK    3  A    between atoms: C_3  and  O_11
REMARK    4  A    between atoms: C_4  and  O_10
REMARK    5  A    between atoms: C_5  and  O_9
REMARK    6  A    between atoms: C_6  and  O_8
REMARK                            x       y       z     vdW  Elec       q    Type
REMARK                         _______ _______ _______ _____ _____    ______ ____
ROOT
ATOM      1  C   UNL     1      -7.345  -6.082  -4.320  0.00  0.00    +0.000 C 
ATOM      2  C   UNL     1      -6.885  -4.618  -4.169  0.00  0.00    +0.000 C 
ATOM      3  C   UNL     1      -5.377  -4.550  -3.890  0.00  0.00    +0.000 C 
ATOM      4  C   UNL     1      -4.579  -5.425  -4.853  0.00  0.00    +0.000 C 
ATOM      5  C   UNL     1      -5.163  -6.847  -4.833  0.00  0.00    +0.000 C 
ATOM      6  O   UNL     1      -6.521  -6.782  -5.263  0.00  0.00    +0.000 OA
ENDROOT
BRANCH   5   7
ATOM      7  O   UNL     1      -4.452  -7.690  -5.722  0.00  0.00    +0.000 OA
ATOM      8  H   UNL     1      -4.747  -7.464  -6.623  0.00  0.00    +0.000 HD
ENDBRANCH   5   7
BRANCH   4   9
ATOM      9  O   UNL     1      -4.682  -4.875  -6.185  0.00  0.00    +0.000 OA
ATOM     10  H   UNL     1      -5.150  -4.018  -6.106  0.00  0.00    +0.000 HD
ENDBRANCH   4   9
BRANCH   3  11
ATOM     11  O   UNL     1      -4.961  -3.178  -3.990  0.00  0.00    +0.000 OA
ATOM     12  H   UNL     1      -4.114  -3.184  -4.482  0.00  0.00    +0.000 HD
ENDBRANCH   3  11
BRANCH   2  13
ATOM     13  O   UNL     1      -7.607  -3.988  -3.103  0.00  0.00    +0.000 OA
ATOM     14  H   UNL     1      -8.096  -4.703  -2.640  0.00  0.00    +0.000 HD
ENDBRANCH   2  13
BRANCH   1  15
ATOM     15  C   UNL     1      -8.807  -6.152  -4.792  0.00  0.00    +0.000 C 
BRANCH  15  16
ATOM     16  O   UNL     1      -9.342  -4.871  -5.104  0.00  0.00    +0.000 OA
ATOM     17  H   UNL     1      -9.436  -4.818  -6.078  0.00  0.00    +0.000 HD
ENDBRANCH  15  16
ENDBRANCH   1  15
TORSDOF 6
ENDMDL
MODEL 4
REMARK VINA RESULT:    -5.185      3.814      5.872
REMARK INTER + INTRA:          -6.491
REMARK INTER:                  -6.246
REMARK INTRA:                  -0.245
REMARK UNBOUND:                -0.245
REMARK  Name = 
REMARK  6 active torsions:
REMARK  status: ('A' for Active; 'I' for Inactive)
REMARK    1  A    between atoms: C_1  and  C_2
REMARK    2  A    between atoms: C_1  and  O_12
REMARK    3  A    between atoms: C_3  and  O_11
REMARK    4  A    between atoms: C_4  and  O_10
REMARK    5  A    between atoms: C_5  and  O_9
REMARK    6  A    between atoms: C_6  and  O_8
REMARK                            x       y       z     vdW  Elec       q    Type
REMARK                         _______ _______ _______ _____ _____    ______ ____
ROOT
ATOM      1  C   UNL     1      -5.557  -6.321  -4.317  0.00  0.00    +0.000 C 
ATOM      2  C   UNL     1      -7.074  -6.372  -4.592  0.00  0.00    +0.000 C 
ATOM      3  C   UNL     1      -7.751  -5.068  -4.149  0.00  0.00    +0.000 C 
ATOM      4  C   UNL     1      -7.002  -3.837  -4.655  0.00  0.00    +0.000 C 
ATOM      5  C   UNL     1      -5.524  -3.953  -4.251  0.00  0.00    +0.000 C 
ATOM      6  O   UNL     1      -4.981  -5.123  -4.858  0.00  0.00    +0.000 OA
ENDROOT
BRANCH   5   7
ATOM      7  O   UNL     1      -4.792  -2.830  -4.709  0.00  0.00    +0.000 OA
ATOM      8  H   UNL     1      -5.434  -2.107  -4.837  0.00  0.00    +0.000 HD
ENDBRANCH   5   7
BRANCH   4   9
ATOM      9  O   UNL     1      -7.110  -3.779  -6.094  0.00  0.00    +0.000 OA
ATOM     10  H   UNL     1      -6.870  -2.868  -6.363  0.00  0.00    +0.000 HD
ENDBRANCH   4   9
BRANCH   3  11
ATOM     11  O   UNL     1      -9.103  -5.073  -4.635  0.00  0.00    +0.000 OA
ATOM     12  H   UNL     1      -9.044  -5.171  -5.607  0.00  0.00    +0.000 HD
ENDBRANCH   3  11
BRANCH   2  13
ATOM     13  O   UNL     1      -7.658  -7.484  -3.900  0.00  0.00    +0.000 OA
ATOM     14  H   UNL     1      -7.223  -8.289  -4.255  0.00  0.00    +0.000 HD
ENDBRANCH   2  13
BRANCH   1  15
ATOM     15  C   UNL     1      -4.846  -7.536  -4.934  0.00  0.00    +0.000 C 
BRANCH  15  16
ATOM     16  O   UNL     1      -5.046  -8.727  -4.182  0.00  0.00    +0.000 OA
ATOM     17  H   UNL     1      -4.216  -9.248  -4.226  0.00  0.00    +0.000 HD
ENDBRANCH  15  16
ENDBRANCH   1  15
TORSDOF 6
ENDMDL
MODEL 5
REMARK VINA RESULT:    -5.155      1.386      3.604
REMARK INTER + INTRA:          -6.455
REMARK INTER:                  -6.206
REMARK INTRA:                  -0.249
REMARK UNBOUND:                -0.245
REMARK  Name = 
REMARK  6 active torsions:
REMARK  status: ('A' for Active; 'I' for Inactive)
REMARK    1  A    between atoms: C_1  and  C_2
REMARK    2  A    between atoms: C_1  and  O_12
REMARK    3  A    between atoms: C_3  and  O_11
REMARK    4  A    between atoms: C_4  and  O_10
REMARK    5  A    between atoms: C_5  and  O_9
REMARK    6  A    between atoms: C_6  and  O_8
REMARK                            x       y       z     vdW  Elec       q    Type
REMARK                         _______ _______ _______ _____ _____    ______ ____
ROOT
ATOM      1  C   UNL     1     -11.804  -6.697  -4.106  0.00  0.00    +0.000 C 
ATOM      2  C   UNL     1     -10.274  -6.682  -4.296  0.00  0.00    +0.000 C 
ATOM      3  C   UNL     1      -9.613  -5.722  -3.297  0.00  0.00    +0.000 C 
ATOM      4  C   UNL     1     -10.127  -5.937  -1.876  0.00  0.00    +0.000 C 
ATOM      5  C   UNL     1     -11.663  -5.880  -1.888  0.00  0.00    +0.000 C 
ATOM      6  O   UNL     1     -12.146  -6.923  -2.731  0.00  0.00    +0.000 OA
ENDROOT
BRANCH   5   7
ATOM      7  O   UNL     1     -12.179  -6.083  -0.584  0.00  0.00    +0.000 OA
ATOM      8  H   UNL     1     -11.423  -6.045   0.029  0.00  0.00    +0.000 HD
ENDBRANCH   5   7
BRANCH   4   9
ATOM      9  O   UNL     1      -9.692  -7.233  -1.409  0.00  0.00    +0.000 OA
ATOM     10  H   UNL     1     -10.482  -7.812  -1.389  0.00  0.00    +0.000 HD
ENDBRANCH   4   9
BRANCH   3  11
ATOM     11  O   UNL     1      -8.191  -5.918  -3.356  0.00  0.00    +0.000 OA
ATOM     12  H   UNL     1      -7.994  -6.673  -2.764  0.00  0.00    +0.000 HD
ENDBRANCH   3  11
BRANCH   2  13
ATOM     13  O   UNL     1      -9.953  -6.286  -5.637  0.00  0.00    +0.000 OA
ATOM     14  H   UNL     1     -10.750  -6.477  -6.178  0.00  0.00    +0.000 HD
ENDBRANCH   2  13
BRANCH   1  15
ATOM     15  C   UNL     1     -12.452  -7.796  -4.965  0.00  0.00    +0.000 C 
BRANCH  15  16
ATOM     16  O   UNL     1     -11.513  -8.764  -5.414  0.00  0.00    +0.000 OA
ATOM     17  H   UNL     1     -11.994  -9.406  -5.978  0.00  0.00    +0.000 HD
ENDBRANCH  15  16
ENDBRANCH   1  15
TORSDOF 6
ENDMDL
MODEL 6
REMARK VINA RESULT:    -5.072     15.825     16.637
REMARK INTER + INTRA:          -6.355
REMARK INTER:                  -6.152
REMARK INTRA:                  -0.203
REMARK UNBOUND:                -0.245
REMARK  Name = 
REMARK  6 active torsions:
REMARK  status: ('A' for Active; 'I' for Inactive)
REMARK    1  A    between atoms: C_1  and  C_2
REMARK    2  A    between atoms: C_1  and  O_12
REMARK    3  A    between atoms: C_3  and  O_11
REMARK    4  A    between atoms: C_4  and  O_10
REMARK    5  A    between atoms: C_5  and  O_9
REMARK    6  A    between atoms: C_6  and  O_8
REMARK                            x       y       z     vdW  Elec       q    Type
REMARK                         _______ _______ _______ _____ _____    ______ ____
ROOT
ATOM      1  C   UNL     1      -1.351   7.659  -3.257  0.00  0.00    +0.000 C 
ATOM      2  C   UNL     1      -2.460   6.754  -3.833  0.00  0.00    +0.000 C 
ATOM      3  C   UNL     1      -3.846   7.351  -3.554  0.00  0.00    +0.000 C 
ATOM      4  C   UNL     1      -3.911   8.833  -3.915  0.00  0.00    +0.000 C 
ATOM      5  C   UNL     1      -2.754   9.566  -3.219  0.00  0.00    +0.000 C 
ATOM      6  O   UNL     1      -1.525   9.016  -3.687  0.00  0.00    +0.000 OA
ENDROOT
BRANCH   5   7
ATOM      7  O   UNL     1      -2.776  10.947  -3.536  0.00  0.00    +0.000 OA
ATOM      8  H   UNL     1      -1.850  11.249  -3.549  0.00  0.00    +0.000 HD
ENDBRANCH   5   7
BRANCH   4   9
ATOM      9  O   UNL     1      -3.786   8.974  -5.348  0.00  0.00    +0.000 OA
ATOM     10  H   UNL     1      -2.994   8.464  -5.618  0.00  0.00    +0.000 HD
ENDBRANCH   4   9
BRANCH   3  11
ATOM     11  O   UNL     1      -4.818   6.604  -4.303  0.00  0.00    +0.000 OA
ATOM     12  H   UNL     1      -4.519   6.624  -5.235  0.00  0.00    +0.000 HD
ENDBRANCH   3  11
BRANCH   2  13
ATOM     13  O   UNL     1      -2.368   5.444  -3.256  0.00  0.00    +0.000 OA
ATOM     14  H   UNL     1      -3.289   5.160  -3.070  0.00  0.00    +0.000 HD
ENDBRANCH   2  13
BRANCH   1  15
ATOM     15  C   UNL     1       0.039   7.172  -3.700  0.00  0.00    +0.000 C 
BRANCH  15  16
ATOM     16  O   UNL     1       0.307   5.836  -3.291  0.00  0.00    +0.000 OA
ATOM     17  H   UNL     1      -0.309   5.248  -3.777  0.00  0.00    +0.000 HD
ENDBRANCH  15  16
ENDBRANCH   1  15
TORSDOF 6
ENDMDL
MODEL 7
REMARK VINA RESULT:    -4.867     10.705     12.474
REMARK INTER + INTRA:          -6.109
REMARK INTER:                  -6.064
REMARK INTRA:                  -0.045
REMARK UNBOUND:                -0.245
REMARK  Name = 
REMARK  6 active torsions:
REMARK  status: ('A' for Active; 'I' for Inactive)
REMARK    1  A    between atoms: C_1  and  C_2
REMARK    2  A    between atoms: C_1  and  O_12
REMARK    3  A    between atoms: C_3  and  O_11
REMARK    4  A    between atoms: C_4  and  O_10
REMARK    5  A    between atoms: C_5  and  O_9
REMARK    6  A    between atoms: C_6  and  O_8
REMARK                            x       y       z     vdW  Elec       q    Type
REMARK                         _______ _______ _______ _____ _____    ______ ____
ROOT
ATOM      1  C   UNL     1      -3.223  -1.611 -12.547  0.00  0.00    +0.000 C 
ATOM      2  C   UNL     1      -1.902  -2.182 -11.992  0.00  0.00    +0.000 C 
ATOM      3  C   UNL     1      -2.148  -2.944 -10.682  0.00  0.00    +0.000 C 
ATOM      4  C   UNL     1      -3.320  -3.915 -10.800  0.00  0.00    +0.000 C 
ATOM      5  C   UNL     1      -4.546  -3.154 -11.330  0.00  0.00    +0.000 C 
ATOM      6  O   UNL     1      -4.229  -2.632 -12.618  0.00  0.00    +0.000 OA
ENDROOT
BRANCH   5   7
ATOM      7  O   UNL     1      -5.655  -4.025 -11.460  0.00  0.00    +0.000 OA
ATOM      8  H   UNL     1      -6.425  -3.471 -11.687  0.00  0.00    +0.000 HD
ENDBRANCH   5   7
BRANCH   4   9
ATOM      9  O   UNL     1      -2.966  -4.970 -11.722  0.00  0.00    +0.000 OA
ATOM     10  H   UNL     1      -2.034  -4.822 -11.984  0.00  0.00    +0.000 HD
ENDBRANCH   4   9
BRANCH   3  11
ATOM     11  O   UNL     1      -0.943  -3.645 -10.335  0.00  0.00    +0.000 OA
ATOM     12  H   UNL     1      -0.897  -4.422 -10.930  0.00  0.00    +0.000 HD
ENDBRANCH   3  11
BRANCH   2  13
ATOM     13  O   UNL     1      -0.967  -1.117 -11.768  0.00  0.00    +0.000 OA
ATOM     14  H   UNL     1      -0.768  -1.124 -10.807  0.00  0.00    +0.000 HD
ENDBRANCH   2  13
BRANCH   1  15
ATOM     15  C   UNL     1      -3.017  -1.019 -13.951  0.00  0.00    +0.000 C 
BRANCH  15  16
ATOM     16  O   UNL     1      -3.572   0.284 -14.081  0.00  0.00    +0.000 OA
ATOM     17  H   UNL     1      -3.093   0.874 -13.462  0.00  0.00    +0.000 HD
ENDBRANCH  15  16
ENDBRANCH   1  15
TORSDOF 6
ENDMDL
MODEL 8
REMARK VINA RESULT:    -4.834     15.989     16.738
REMARK INTER + INTRA:          -6.069
REMARK INTER:                  -5.823
REMARK INTRA:                  -0.245
REMARK UNBOUND:                -0.245
REMARK  Name = 
REMARK  6 active torsions:
REMARK  status: ('A' for Active; 'I' for Inactive)
REMARK    1  A    between atoms: C_1  and  C_2
REMARK    2  A    between atoms: C_1  and  O_12
REMARK    3  A    between atoms: C_3  and  O_11
REMARK    4  A    between atoms: C_4  and  O_10
REMARK    5  A    between atoms: C_5  and  O_9
REMARK    6  A    between atoms: C_6  and  O_8
REMARK                            x       y       z     vdW  Elec       q    Type
REMARK                         _______ _______ _______ _____ _____    ______ ____
ROOT
ATOM      1  C   UNL     1      -0.320   7.308  -3.325  0.00  0.00    +0.000 C 
ATOM      2  C   UNL     1      -0.147   7.394  -4.855  0.00  0.00    +0.000 C 
ATOM      3  C   UNL     1      -1.072   6.394  -5.563  0.00  0.00    +0.000 C 
ATOM      4  C   UNL     1      -2.500   6.463  -5.029  0.00  0.00    +0.000 C 
ATOM      5  C   UNL     1      -2.467   6.321  -3.499  0.00  0.00    +0.000 C 
ATOM      6  O   UNL     1      -1.706   7.401  -2.962  0.00  0.00    +0.000 OA
ENDROOT
BRANCH   5   7
ATOM      7  O   UNL     1      -3.776   6.387  -2.963  0.00  0.00    +0.000 OA
ATOM      8  H   UNL     1      -4.387   6.126  -3.676  0.00  0.00    +0.000 HD
ENDBRANCH   5   7
BRANCH   4   9
ATOM      9  O   UNL     1      -3.076   7.739  -5.386  0.00  0.00    +0.000 OA
ATOM     10  H   UNL     1      -3.147   7.758  -6.364  0.00  0.00    +0.000 HD
ENDBRANCH   4   9
BRANCH   3  11
ATOM     11  O   UNL     1      -1.044   6.675  -6.972  0.00  0.00    +0.000 OA
ATOM     12  H   UNL     1      -0.895   7.639  -7.057  0.00  0.00    +0.000 HD
ENDBRANCH   3  11
BRANCH   2  13
ATOM     13  O   UNL     1       1.218   7.128  -5.206  0.00  0.00    +0.000 OA
ATOM     14  H   UNL     1       1.437   6.253  -4.817  0.00  0.00    +0.000 HD
ENDBRANCH   2  13
BRANCH   1  15
ATOM     15  C   UNL     1       0.453   8.435  -2.621  0.00  0.00    +0.000 C 
BRANCH  15  16
ATOM     16  O   UNL     1       0.724   9.534  -3.482  0.00  0.00    +0.000 OA
ATOM     17  H   UNL     1       1.697   9.620  -3.556  0.00  0.00    +0.000 HD
ENDBRANCH  15  16
ENDBRANCH   1  15
TORSDOF 6
ENDMDL
MODEL 9
REMARK VINA RESULT:    -4.718     15.759     16.688
REMARK INTER + INTRA:          -5.929
REMARK INTER:                  -5.704
REMARK INTRA:                  -0.225
REMARK UNBOUND:                -0.245
REMARK  Name = 
REMARK  6 active torsions:
REMARK  status: ('A' for Active; 'I' for Inactive)
REMARK    1  A    between atoms: C_1  and  C_2
REMARK    2  A    between atoms: C_1  and  O_12
REMARK    3  A    between atoms: C_3  and  O_11
REMARK    4  A    between atoms: C_4  and  O_10
REMARK    5  A    between atoms: C_5  and  O_9
REMARK    6  A    between atoms: C_6  and  O_8
REMARK                            x       y       z     vdW  Elec       q    Type
REMARK                         _______ _______ _______ _____ _____    ______ ____
ROOT
ATOM      1  C   UNL     1      -1.004   7.340  -4.312  0.00  0.00    +0.000 C 
ATOM      2  C   UNL     1      -2.280   6.543  -4.653  0.00  0.00    +0.000 C 
ATOM      3  C   UNL     1      -3.459   7.012  -3.790  0.00  0.00    +0.000 C 
ATOM      4  C   UNL     1      -3.583   8.534  -3.773  0.00  0.00    +0.000 C 
ATOM      5  C   UNL     1      -2.227   9.139  -3.376  0.00  0.00    +0.000 C 
ATOM      6  O   UNL     1      -1.259   8.751  -4.348  0.00  0.00    +0.000 OA
ENDROOT
BRANCH   5   7
ATOM      7  O   UNL     1      -2.299  10.554  -3.356  0.00  0.00    +0.000 OA
ATOM      8  H   UNL     1      -2.366  10.847  -4.283  0.00  0.00    +0.000 HD
ENDBRANCH   5   7
BRANCH   4   9
ATOM      9  O   UNL     1      -3.952   8.991  -5.093  0.00  0.00    +0.000 OA
ATOM     10  H   UNL     1      -3.149   9.380  -5.498  0.00  0.00    +0.000 HD
ENDBRANCH   4   9
BRANCH   3  11
ATOM     11  O   UNL     1      -4.660   6.413  -4.303  0.00  0.00    +0.000 OA
ATOM     12  H   UNL     1      -4.450   6.112  -5.211  0.00  0.00    +0.000 HD
ENDBRANCH   3  11
BRANCH   2  13
ATOM     13  O   UNL     1      -2.050   5.143  -4.445  0.00  0.00    +0.000 OA
ATOM     14  H   UNL     1      -2.323   4.953  -3.521  0.00  0.00    +0.000 HD
ENDBRANCH   2  13
BRANCH   1  15
ATOM     15  C   UNL     1       0.127   7.014  -5.302  0.00  0.00    +0.000 C 
BRANCH  15  16
ATOM     16  O   UNL     1      -0.361   6.634  -6.583  0.00  0.00    +0.000 OA
ATOM     17  H   UNL     1      -0.939   5.852  -6.460  0.00  0.00    +0.000 HD
ENDBRANCH  15  16
ENDBRANCH   1  15
TORSDOF 6
ENDMDL
