REMARK  Name = 
REMARK  6 active torsions:
REMARK  status: ('A' for Active; 'I' for Inactive)
REMARK    1  A    between atoms: C_1  and  C_2
REMARK    2  A    between atoms: C_1  and  O_12
REMARK    3  A    between atoms: C_3  and  O_11
REMARK    4  A    between atoms: C_4  and  O_10
REMARK    5  A    between atoms: C_5  and  O_9
REMARK    6  A    between atoms: C_6  and  O_8
REMARK                            x       y       z     vdW  Elec       q    Type
REMARK                         _______ _______ _______ _____ _____    ______ ____
ROOT
ATOM      1  C   UNL     1       0.646   0.137   1.433  0.00  0.00    +0.000 C 
ATOM      2  C   UNL     1      -0.173  -1.134   1.737  0.00  0.00    +0.000 C 
ATOM      3  C   UNL     1      -0.875  -1.015   3.097  0.00  0.00    +0.000 C 
ATOM      4  C   UNL     1      -1.598   0.321   3.249  0.00  0.00    +0.000 C 
ATOM      5  C   UNL     1      -0.611   1.459   2.944  0.00  0.00    +0.000 C 
ATOM      6  O   UNL     1      -0.158   1.314   1.600  0.00  0.00    +0.000 OA
ENDROOT
BRANCH   5   7
ATOM      7  O   UNL     1      -1.248   2.718   3.068  0.00  0.00    +0.000 OA
ATOM      8  H   UNL     1      -2.179   2.591   2.808  0.00  0.00    +0.000 HD
ENDBRANCH   5   7
BRANCH   4   9
ATOM      9  O   UNL     1      -2.700   0.369   2.316  0.00  0.00    +0.000 OA
ATOM     10  H   UNL     1      -2.348   0.726   1.474  0.00  0.00    +0.000 HD
ENDBRANCH   4   9
BRANCH   3  11
ATOM     11  O   UNL     1      -1.799  -2.108   3.225  0.00  0.00    +0.000 OA
ATOM     12  H   UNL     1      -2.642  -1.801   2.833  0.00  0.00    +0.000 HD
ENDBRANCH   3  11
BRANCH   2  13
ATOM     13  O   UNL     1       0.688  -2.281   1.732  0.00  0.00    +0.000 OA
ATOM     14  H   UNL     1       0.263  -2.947   2.315  0.00  0.00    +0.000 HD
ENDBRANCH   2  13
BRANCH   1  15
ATOM     15  C   UNL     1       1.190   0.108  -0.005  0.00  0.00    +0.000 C 
BRANCH  15  16
ATOM     16  O   UNL     1       2.095  -0.967  -0.226  0.00  0.00    +0.000 OA
ATOM     17  H   UNL     1       1.746  -1.751   0.248  0.00  0.00    +0.000 HD
ENDBRANCH  15  16
ENDBRANCH   1  15
TORSDOF 6
