
     RDKit          3D

 24 24  0  0  0  0  0  0  0  0999 V2000
   -1.9593   -0.5776    1.4644 C   0  0  0  0  0  0  0  0  0  0  0  0
   -1.0700   -0.1013    0.3050 C   0  0  0  0  0  0  0  0  0  0  0  0
   -0.0616   -1.1869   -0.0942 C   0  0  0  0  0  0  0  0  0  0  0  0
    0.8806   -0.6532   -1.1813 C   0  0  0  0  0  0  0  0  0  0  0  0
    1.5095    0.6707   -0.7636 C   0  0  0  0  0  0  0  0  0  0  0  0
    0.4175    1.6537   -0.3075 C   0  0  0  0  0  0  0  0  0  0  0  0
   -0.3891    1.0962    0.7171 O   0  0  0  0  0  0  0  0  0  0  0  0
    1.0637    2.7902    0.2471 O   0  0  0  0  0  0  0  0  0  0  0  0
    2.4337    0.4015    0.3141 O   0  0  0  0  0  0  0  0  0  0  0  0
    1.8997   -1.6366   -1.4230 O   0  0  0  0  0  0  0  0  0  0  0  0
   -0.7360   -2.3434   -0.6009 O   0  0  0  0  0  0  0  0  0  0  0  0
   -3.0248    0.3474    1.7021 O   0  0  0  0  0  0  0  0  0  0  0  0
   -2.4084   -1.5546    1.2615 H   0  0  0  0  0  0  0  0  0  0  0  0
   -1.3807   -0.6432    2.3914 H   0  0  0  0  0  0  0  0  0  0  0  0
   -1.7224    0.1489   -0.5424 H   0  0  0  0  0  0  0  0  0  0  0  0
    0.5223   -1.5082    0.7773 H   0  0  0  0  0  0  0  0  0  0  0  0
    0.3290   -0.5339   -2.1213 H   0  0  0  0  0  0  0  0  0  0  0  0
    2.1117    1.0985   -1.5720 H   0  0  0  0  0  0  0  0  0  0  0  0
   -0.2085    1.9741   -1.1482 H   0  0  0  0  0  0  0  0  0  0  0  0
    0.3342    3.3236    0.6103 H   0  0  0  0  0  0  0  0  0  0  0  0
    2.5014    1.2535    0.7966 H   0  0  0  0  0  0  0  0  0  0  0  0
    2.5955   -1.4490   -0.7563 H   0  0  0  0  0  0  0  0  0  0  0  0
   -0.0334   -2.8985   -0.9984 H   0  0  0  0  0  0  0  0  0  0  0  0
   -3.6046    0.3281    0.9224 H   0  0  0  0  0  0  0  0  0  0  0  0
  1  2  1  0
  2  3  1  0
  3  4  1  0
  4  5  1  0
  5  6  1  0
  6  7  1  0
  6  8  1  0
  5  9  1  0
  4 10  1  0
  3 11  1  0
  1 12  1  0
  7  2  1  0
  1 13  1  0
  1 14  1  0
  2 15  1  0
  3 16  1  0
  4 17  1  0
  5 18  1  0
  6 19  1  0
  8 20  1  0
  9 21  1  0
 10 22  1  0
 11 23  1  0
 12 24  1  0
M  END
$$$$
