MODEL 1
REMARK VINA RESULT:    -6.005      0.000      0.000
REMARK INTER + INTRA:          -9.762
REMARK INTER:                  -8.755
REMARK INTRA:                  -1.007
REMARK UNBOUND:                -0.949
REMARK  Name = 
REMARK  12 active torsions:
REMARK  status: ('A' for Active; 'I' for Inactive)
REMARK    1  A    between atoms: C_1  and  C_2
REMARK    2  A    between atoms: C_1  and  O_23
REMARK    3  A    between atoms: C_3  and  O_22
REMARK    4  A    between atoms: C_4  and  O_21
REMARK    5  A    between atoms: C_5  and  O_20
REMARK    6  A    between atoms: C_6  and  O_8
REMARK    7  A    between atoms: O_8  and  C_9
REMARK    8  A    between atoms: C_10  and  O_19
REMARK    9  A    between atoms: C_11  and  O_18
REMARK   10  A    between atoms: C_12  and  O_17
REMARK   11  A    between atoms: C_13  and  C_15
REMARK   12  A    between atoms: C_15  and  O_16
REMARK                            x       y       z     vdW  Elec       q    Type
REMARK                         _______ _______ _______ _____ _____    ______ ____
ROOT
ATOM      1  O   UNL     1       0.430   7.941  -4.596  0.00  0.00    +0.000 OA
ENDROOT
BRANCH   1   6
ATOM      2  C   UNL     1      -1.973   5.872  -4.632  0.00  0.00    +0.000 C 
ATOM      3  C   UNL     1      -3.165   6.800  -4.367  0.00  0.00    +0.000 C 
ATOM      4  C   UNL     1      -2.684   8.259  -4.335  0.00  0.00    +0.000 C 
ATOM      5  C   UNL     1      -1.581   8.431  -3.284  0.00  0.00    +0.000 C 
ATOM      6  C   UNL     1      -0.409   7.444  -3.550  0.00  0.00    +0.000 C 
ATOM      7  O   UNL     1      -0.870   6.104  -3.737  0.00  0.00    +0.000 OA
BRANCH   5   8
ATOM      8  O   UNL     1      -2.195   8.180  -1.991  0.00  0.00    +0.000 OA
ATOM      9  H   UNL     1      -3.083   8.577  -2.010  0.00  0.00    +0.000 HD
ENDBRANCH   5   8
BRANCH   4  10
ATOM     10  O   UNL     1      -3.776   9.138  -4.046  0.00  0.00    +0.000 OA
ATOM     11  H   UNL     1      -4.151   9.400  -4.910  0.00  0.00    +0.000 HD
ENDBRANCH   4  10
BRANCH   3  12
ATOM     12  O   UNL     1      -3.801   6.423  -3.134  0.00  0.00    +0.000 OA
ATOM     13  H   UNL     1      -3.480   5.526  -2.898  0.00  0.00    +0.000 HD
ENDBRANCH   3  12
BRANCH   2  14
ATOM     14  C   UNL     1      -1.540   5.909  -6.111  0.00  0.00    +0.000 C 
BRANCH  14  15
ATOM     15  O   UNL     1      -0.219   5.396  -6.299  0.00  0.00    +0.000 OA
ATOM     16  H   UNL     1       0.323   5.684  -5.542  0.00  0.00    +0.000 HD
ENDBRANCH  14  15
ENDBRANCH   2  14
ENDBRANCH   1   6
BRANCH   1  17
ATOM     17  C   UNL     1       1.825   7.740  -4.340  0.00  0.00    +0.000 C 
ATOM     18  C   UNL     1       2.539   7.283  -5.636  0.00  0.00    +0.000 C 
ATOM     19  C   UNL     1       2.825   8.489  -6.541  0.00  0.00    +0.000 C 
ATOM     20  C   UNL     1       3.635   9.539  -5.772  0.00  0.00    +0.000 C 
ATOM     21  C   UNL     1       2.828   9.947  -4.522  0.00  0.00    +0.000 C 
ATOM     22  O   UNL     1       2.485   8.828  -3.701  0.00  0.00    +0.000 OA
BRANCH  20  23
ATOM     23  O   UNL     1       4.936   9.054  -5.410  0.00  0.00    +0.000 OA
ATOM     24  H   UNL     1       5.440   9.812  -5.043  0.00  0.00    +0.000 HD
ENDBRANCH  20  23
BRANCH  19  25
ATOM     25  O   UNL     1       3.537   8.060  -7.708  0.00  0.00    +0.000 OA
ATOM     26  H   UNL     1       4.486   8.201  -7.511  0.00  0.00    +0.000 HD
ENDBRANCH  19  25
BRANCH  18  27
ATOM     27  O   UNL     1       3.816   6.675  -5.332  0.00  0.00    +0.000 OA
ATOM     28  H   UNL     1       3.898   5.887  -5.910  0.00  0.00    +0.000 HD
ENDBRANCH  18  27
BRANCH  21  29
ATOM     29  C   UNL     1       3.606  10.930  -3.635  0.00  0.00    +0.000 C 
BRANCH  29  30
ATOM     30  O   UNL     1       4.563  10.258  -2.825  0.00  0.00    +0.000 OA
ATOM     31  H   UNL     1       4.153  10.146  -1.946  0.00  0.00    +0.000 HD
ENDBRANCH  29  30
ENDBRANCH  21  29
ENDBRANCH   1  17
TORSDOF 12
ENDMDL
MODEL 2
REMARK VINA RESULT:    -5.919      1.879      6.299
REMARK INTER + INTRA:          -9.636
REMARK INTER:                  -9.042
REMARK INTRA:                  -0.594
REMARK UNBOUND:                -0.949
REMARK  Name = 
REMARK  12 active torsions:
REMARK  status: ('A' for Active; 'I' for Inactive)
REMARK    1  A    between atoms: C_1  and  C_2
REMARK    2  A    between atoms: C_1  and  O_23
REMARK    3  A    between atoms: C_3  and  O_22
REMARK    4  A    between atoms: C_4  and  O_21
REMARK    5  A    between atoms: C_5  and  O_20
REMARK    6  A    between atoms: C_6  and  O_8
REMARK    7  A    between atoms: O_8  and  C_9
REMARK    8  A    between atoms: C_10  and  O_19
REMARK    9  A    between atoms: C_11  and  O_18
REMARK   10  A    between atoms: C_12  and  O_17
REMARK   11  A    between atoms: C_13  and  C_15
REMARK   12  A    between atoms: C_15  and  O_16
REMARK                            x       y       z     vdW  Elec       q    Type
REMARK                         _______ _______ _______ _____ _____    ______ ____
ROOT
ATOM      1  O   UNL     1       0.061   8.476  -3.705  0.00  0.00    +0.000 OA
ENDROOT
BRANCH   1   6
ATOM      2  C   UNL     1       1.611  10.962  -2.493  0.00  0.00    +0.000 C 
ATOM      3  C   UNL     1       2.628  11.246  -3.606  0.00  0.00    +0.000 C 
ATOM      4  C   UNL     1       2.356  10.319  -4.800  0.00  0.00    +0.000 C 
ATOM      5  C   UNL     1       2.394   8.852  -4.352  0.00  0.00    +0.000 C 
ATOM      6  C   UNL     1       1.389   8.606  -3.192  0.00  0.00    +0.000 C 
ATOM      7  O   UNL     1       1.535   9.568  -2.144  0.00  0.00    +0.000 OA
BRANCH   5   8
ATOM      8  O   UNL     1       3.758   8.580  -3.932  0.00  0.00    +0.000 OA
ATOM      9  H   UNL     1       4.032   9.308  -3.348  0.00  0.00    +0.000 HD
ENDBRANCH   5   8
BRANCH   4  10
ATOM     10  O   UNL     1       3.322  10.539  -5.833  0.00  0.00    +0.000 OA
ATOM     11  H   UNL     1       4.009   9.853  -5.714  0.00  0.00    +0.000 HD
ENDBRANCH   4  10
BRANCH   3  12
ATOM     12  O   UNL     1       3.960  11.077  -3.093  0.00  0.00    +0.000 OA
ATOM     13  H   UNL     1       4.313  11.968  -2.885  0.00  0.00    +0.000 HD
ENDBRANCH   3  12
BRANCH   2  14
ATOM     14  C   UNL     1       0.227  11.556  -2.820  0.00  0.00    +0.000 C 
BRANCH  14  15
ATOM     15  O   UNL     1       0.312  12.918  -3.246  0.00  0.00    +0.000 OA
ATOM     16  H   UNL     1       1.087  13.319  -2.811  0.00  0.00    +0.000 HD
ENDBRANCH  14  15
ENDBRANCH   2  14
ENDBRANCH   1   6
BRANCH   1  17
ATOM     17  C   UNL     1      -0.420   7.126  -3.680  0.00  0.00    +0.000 C 
ATOM     18  C   UNL     1      -1.939   7.112  -3.376  0.00  0.00    +0.000 C 
ATOM     19  C   UNL     1      -2.740   7.430  -4.646  0.00  0.00    +0.000 C 
ATOM     20  C   UNL     1      -2.362   6.449  -5.762  0.00  0.00    +0.000 C 
ATOM     21  C   UNL     1      -0.843   6.561  -6.007  0.00  0.00    +0.000 C 
ATOM     22  O   UNL     1      -0.079   6.342  -4.818  0.00  0.00    +0.000 OA
BRANCH  20  23
ATOM     23  O   UNL     1      -2.734   5.101  -5.439  0.00  0.00    +0.000 OA
ATOM     24  H   UNL     1      -3.715   5.065  -5.421  0.00  0.00    +0.000 HD
ENDBRANCH  20  23
BRANCH  19  25
ATOM     25  O   UNL     1      -4.143   7.357  -4.364  0.00  0.00    +0.000 OA
ATOM     26  H   UNL     1      -4.545   6.891  -5.126  0.00  0.00    +0.000 HD
ENDBRANCH  19  25
BRANCH  18  27
ATOM     27  O   UNL     1      -2.361   5.803  -2.931  0.00  0.00    +0.000 OA
ATOM     28  H   UNL     1      -2.080   5.718  -1.995  0.00  0.00    +0.000 HD
ENDBRANCH  18  27
BRANCH  21  29
ATOM     29  C   UNL     1      -0.354   5.542  -7.047  0.00  0.00    +0.000 C 
BRANCH  29  30
ATOM     30  O   UNL     1       1.009   5.760  -7.391  0.00  0.00    +0.000 OA
ATOM     31  H   UNL     1       1.406   6.257  -6.651  0.00  0.00    +0.000 HD
ENDBRANCH  29  30
ENDBRANCH  21  29
ENDBRANCH   1  17
TORSDOF 12
ENDMDL
MODEL 3
REMARK VINA RESULT:    -5.891      2.145      3.008
REMARK INTER + INTRA:          -9.595
REMARK INTER:                  -9.058
REMARK INTRA:                  -0.537
REMARK UNBOUND:                -0.949
REMARK  Name = 
REMARK  12 active torsions:
REMARK  status: ('A' for Active; 'I' for Inactive)
REMARK    1  A    between atoms: C_1  and  C_2
REMARK    2  A    between atoms: C_1  and  O_23
REMARK    3  A    between atoms: C_3  and  O_22
REMARK    4  A    between atoms: C_4  and  O_21
REMARK    5  A    between atoms: C_5  and  O_20
REMARK    6  A    between atoms: C_6  and  O_8
REMARK    7  A    between atoms: O_8  and  C_9
REMARK    8  A    between atoms: C_10  and  O_19
REMARK    9  A    between atoms: C_11  and  O_18
REMARK   10  A    between atoms: C_12  and  O_17
REMARK   11  A    between atoms: C_13  and  C_15
REMARK   12  A    between atoms: C_15  and  O_16
REMARK                            x       y       z     vdW  Elec       q    Type
REMARK                         _______ _______ _______ _____ _____    ______ ____
ROOT
ATOM      1  O   UNL     1       0.280   7.901  -3.602  0.00  0.00    +0.000 OA
ENDROOT
BRANCH   1   6
ATOM      2  C   UNL     1      -1.509   5.885  -5.272  0.00  0.00    +0.000 C 
ATOM      3  C   UNL     1      -2.799   6.700  -5.433  0.00  0.00    +0.000 C 
ATOM      4  C   UNL     1      -2.595   8.106  -4.848  0.00  0.00    +0.000 C 
ATOM      5  C   UNL     1      -2.157   8.012  -3.381  0.00  0.00    +0.000 C 
ATOM      6  C   UNL     1      -0.877   7.141  -3.244  0.00  0.00    +0.000 C 
ATOM      7  O   UNL     1      -1.006   5.889  -3.924  0.00  0.00    +0.000 OA
BRANCH   5   8
ATOM      8  O   UNL     1      -3.270   7.429  -2.650  0.00  0.00    +0.000 OA
ATOM      9  H   UNL     1      -3.435   7.991  -1.874  0.00  0.00    +0.000 HD
ENDBRANCH   5   8
BRANCH   4  10
ATOM     10  O   UNL     1      -3.803   8.868  -4.949  0.00  0.00    +0.000 OA
ATOM     11  H   UNL     1      -4.378   8.386  -5.577  0.00  0.00    +0.000 HD
ENDBRANCH   4  10
BRANCH   3  12
ATOM     12  O   UNL     1      -3.885   6.009  -4.791  0.00  0.00    +0.000 OA
ATOM     13  H   UNL     1      -3.596   5.085  -4.634  0.00  0.00    +0.000 HD
ENDBRANCH   3  12
BRANCH   2  14
ATOM     14  C   UNL     1      -0.437   6.308  -6.295  0.00  0.00    +0.000 C 
BRANCH  14  15
ATOM     15  O   UNL     1      -0.765   5.894  -7.623  0.00  0.00    +0.000 OA
ATOM     16  H   UNL     1      -1.319   5.094  -7.558  0.00  0.00    +0.000 HD
ENDBRANCH  14  15
ENDBRANCH   2  14
ENDBRANCH   1   6
BRANCH   1  17
ATOM     17  C   UNL     1       0.725   8.772  -2.555  0.00  0.00    +0.000 C 
ATOM     18  C   UNL     1       2.204   9.168  -2.789  0.00  0.00    +0.000 C 
ATOM     19  C   UNL     1       2.298  10.288  -3.834  0.00  0.00    +0.000 C 
ATOM     20  C   UNL     1       1.440  11.482  -3.399  0.00  0.00    +0.000 C 
ATOM     21  C   UNL     1      -0.012  10.992  -3.222  0.00  0.00    +0.000 C 
ATOM     22  O   UNL     1      -0.113   9.897  -2.308  0.00  0.00    +0.000 OA
BRANCH  20  23
ATOM     23  O   UNL     1       1.932  12.083  -2.192  0.00  0.00    +0.000 OA
ATOM     24  H   UNL     1       2.736  11.587  -1.925  0.00  0.00    +0.000 HD
ENDBRANCH  20  23
BRANCH  19  25
ATOM     25  O   UNL     1       3.665  10.683  -3.998  0.00  0.00    +0.000 OA
ATOM     26  H   UNL     1       3.706  11.625  -3.734  0.00  0.00    +0.000 HD
ENDBRANCH  19  25
BRANCH  18  27
ATOM     27  O   UNL     1       2.798   9.678  -1.574  0.00  0.00    +0.000 OA
ATOM     28  H   UNL     1       3.769   9.575  -1.669  0.00  0.00    +0.000 HD
ENDBRANCH  18  27
BRANCH  21  29
ATOM     29  C   UNL     1      -0.930  12.103  -2.692  0.00  0.00    +0.000 C 
BRANCH  29  30
ATOM     30  O   UNL     1      -0.447  13.393  -3.046  0.00  0.00    +0.000 OA
ATOM     31  H   UNL     1       0.158  13.265  -3.802  0.00  0.00    +0.000 HD
ENDBRANCH  29  30
ENDBRANCH  21  29
ENDBRANCH   1  17
TORSDOF 12
ENDMDL
MODEL 4
REMARK VINA RESULT:    -5.716      1.357      6.615
REMARK INTER + INTRA:          -9.338
REMARK INTER:                  -8.324
REMARK INTRA:                  -1.014
REMARK UNBOUND:                -0.949
REMARK  Name = 
REMARK  12 active torsions:
REMARK  status: ('A' for Active; 'I' for Inactive)
REMARK    1  A    between atoms: C_1  and  C_2
REMARK    2  A    between atoms: C_1  and  O_23
REMARK    3  A    between atoms: C_3  and  O_22
REMARK    4  A    between atoms: C_4  and  O_21
REMARK    5  A    between atoms: C_5  and  O_20
REMARK    6  A    between atoms: C_6  and  O_8
REMARK    7  A    between atoms: O_8  and  C_9
REMARK    8  A    between atoms: C_10  and  O_19
REMARK    9  A    between atoms: C_11  and  O_18
REMARK   10  A    between atoms: C_12  and  O_17
REMARK   11  A    between atoms: C_13  and  C_15
REMARK   12  A    between atoms: C_15  and  O_16
REMARK                            x       y       z     vdW  Elec       q    Type
REMARK                         _______ _______ _______ _____ _____    ______ ____
ROOT
ATOM      1  O   UNL     1       0.543   9.358  -3.521  0.00  0.00    +0.000 OA
ENDROOT
BRANCH   1   6
ATOM      2  C   UNL     1       3.571  10.302  -3.540  0.00  0.00    +0.000 C 
ATOM      3  C   UNL     1       4.023   9.813  -4.922  0.00  0.00    +0.000 C 
ATOM      4  C   UNL     1       2.820   9.230  -5.680  0.00  0.00    +0.000 C 
ATOM      5  C   UNL     1       2.170   8.108  -4.861  0.00  0.00    +0.000 C 
ATOM      6  C   UNL     1       1.767   8.621  -3.450  0.00  0.00    +0.000 C 
ATOM      7  O   UNL     1       2.842   9.305  -2.801  0.00  0.00    +0.000 OA
BRANCH   5   8
ATOM      8  O   UNL     1       3.148   7.037  -4.771  0.00  0.00    +0.000 OA
ATOM      9  H   UNL     1       3.594   7.123  -3.911  0.00  0.00    +0.000 HD
ENDBRANCH   5   8
BRANCH   4  10
ATOM     10  O   UNL     1       3.231   8.727  -6.956  0.00  0.00    +0.000 OA
ATOM     11  H   UNL     1       4.031   8.189  -6.793  0.00  0.00    +0.000 HD
ENDBRANCH   4  10
BRANCH   3  12
ATOM     12  O   UNL     1       5.074   8.844  -4.766  0.00  0.00    +0.000 OA
ATOM     13  H   UNL     1       5.762   9.244  -4.192  0.00  0.00    +0.000 HD
ENDBRANCH   3  12
BRANCH   2  14
ATOM     14  C   UNL     1       2.803  11.635  -3.631  0.00  0.00    +0.000 C 
BRANCH  14  15
ATOM     15  O   UNL     1       2.055  11.909  -2.445  0.00  0.00    +0.000 OA
ATOM     16  H   UNL     1       2.628  11.717  -1.680  0.00  0.00    +0.000 HD
ENDBRANCH  14  15
ENDBRANCH   2  14
ENDBRANCH   1   6
BRANCH   1  17
ATOM     17  C   UNL     1      -0.542   8.710  -2.846  0.00  0.00    +0.000 C 
ATOM     18  C   UNL     1      -1.785   9.633  -2.837  0.00  0.00    +0.000 C 
ATOM     19  C   UNL     1      -2.512   9.563  -4.187  0.00  0.00    +0.000 C 
ATOM     20  C   UNL     1      -2.872   8.108  -4.511  0.00  0.00    +0.000 C 
ATOM     21  C   UNL     1      -1.570   7.282  -4.524  0.00  0.00    +0.000 C 
ATOM     22  O   UNL     1      -0.837   7.394  -3.302  0.00  0.00    +0.000 OA
BRANCH  20  23
ATOM     23  O   UNL     1      -3.816   7.568  -3.574  0.00  0.00    +0.000 OA
ATOM     24  H   UNL     1      -4.688   7.973  -3.771  0.00  0.00    +0.000 HD
ENDBRANCH  20  23
BRANCH  19  25
ATOM     25  O   UNL     1      -3.691  10.377  -4.145  0.00  0.00    +0.000 OA
ATOM     26  H   UNL     1      -3.485  11.116  -3.536  0.00  0.00    +0.000 HD
ENDBRANCH  19  25
BRANCH  18  27
ATOM     27  O   UNL     1      -2.731   9.211  -1.829  0.00  0.00    +0.000 OA
ATOM     28  H   UNL     1      -3.504   8.839  -2.305  0.00  0.00    +0.000 HD
ENDBRANCH  18  27
BRANCH  21  29
ATOM     29  C   UNL     1      -1.843   5.787  -4.748  0.00  0.00    +0.000 C 
BRANCH  29  30
ATOM     30  O   UNL     1      -2.332   5.164  -3.566  0.00  0.00    +0.000 OA
ATOM     31  H   UNL     1      -3.191   5.582  -3.367  0.00  0.00    +0.000 HD
ENDBRANCH  29  30
ENDBRANCH  21  29
ENDBRANCH   1  17
TORSDOF 12
ENDMDL
MODEL 5
REMARK VINA RESULT:    -5.650      1.469      6.510
REMARK INTER + INTRA:          -9.242
REMARK INTER:                  -8.271
REMARK INTRA:                  -0.971
REMARK UNBOUND:                -0.949
REMARK  Name = 
REMARK  12 active torsions:
REMARK  status: ('A' for Active; 'I' for Inactive)
REMARK    1  A    between atoms: C_1  and  C_2
REMARK    2  A    between atoms: C_1  and  O_23
REMARK    3  A    between atoms: C_3  and  O_22
REMARK    4  A    between atoms: C_4  and  O_21
REMARK    5  A    between atoms: C_5  and  O_20
REMARK    6  A    between atoms: C_6  and  O_8
REMARK    7  A    between atoms: O_8  and  C_9
REMARK    8  A    between atoms: C_10  and  O_19
REMARK    9  A    between atoms: C_11  and  O_18
REMARK   10  A    between atoms: C_12  and  O_17
REMARK   11  A    between atoms: C_13  and  C_15
REMARK   12  A    between atoms: C_15  and  O_16
REMARK                            x       y       z     vdW  Elec       q    Type
REMARK                         _______ _______ _______ _____ _____    ______ ____
ROOT
ATOM      1  O   UNL     1       1.612   8.587  -4.518  0.00  0.00    +0.000 OA
ENDROOT
BRANCH   1   6
ATOM      2  C   UNL     1       4.420   9.445  -5.715  0.00  0.00    +0.000 C 
ATOM      3  C   UNL     1       4.395   8.726  -7.069  0.00  0.00    +0.000 C 
ATOM      4  C   UNL     1       3.028   8.055  -7.270  0.00  0.00    +0.000 C 
ATOM      5  C   UNL     1       2.731   7.097  -6.109  0.00  0.00    +0.000 C 
ATOM      6  C   UNL     1       2.811   7.844  -4.748  0.00  0.00    +0.000 C 
ATOM      7  O   UNL     1       4.019   8.600  -4.622  0.00  0.00    +0.000 OA
BRANCH   5   8
ATOM      8  O   UNL     1       3.718   6.033  -6.184  0.00  0.00    +0.000 OA
ATOM      9  H   UNL     1       3.857   5.833  -7.125  0.00  0.00    +0.000 HD
ENDBRANCH   5   8
BRANCH   4  10
ATOM     10  O   UNL     1       3.000   7.340  -8.511  0.00  0.00    +0.000 OA
ATOM     11  H   UNL     1       3.563   6.551  -8.384  0.00  0.00    +0.000 HD
ENDBRANCH   4  10
BRANCH   3  12
ATOM     12  O   UNL     1       5.470   7.771  -7.125  0.00  0.00    +0.000 OA
ATOM     13  H   UNL     1       6.254   8.185  -6.706  0.00  0.00    +0.000 HD
ENDBRANCH   3  12
BRANCH   2  14
ATOM     14  C   UNL     1       3.622  10.763  -5.755  0.00  0.00    +0.000 C 
BRANCH  14  15
ATOM     15  O   UNL     1       3.125  11.132  -4.467  0.00  0.00    +0.000 OA
ATOM     16  H   UNL     1       3.122  10.333  -3.908  0.00  0.00    +0.000 HD
ENDBRANCH  14  15
ENDBRANCH   2  14
ENDBRANCH   1   6
BRANCH   1  17
ATOM     17  C   UNL     1       0.805   8.041  -3.467  0.00  0.00    +0.000 C 
ATOM     18  C   UNL     1       0.068   9.180  -2.721  0.00  0.00    +0.000 C 
ATOM     19  C   UNL     1      -1.170   9.624  -3.512  0.00  0.00    +0.000 C 
ATOM     20  C   UNL     1      -2.080   8.419  -3.776  0.00  0.00    +0.000 C 
ATOM     21  C   UNL     1      -1.264   7.360  -4.546  0.00  0.00    +0.000 C 
ATOM     22  O   UNL     1      -0.066   6.986  -3.861  0.00  0.00    +0.000 OA
BRANCH  20  23
ATOM     23  O   UNL     1      -2.615   7.875  -2.561  0.00  0.00    +0.000 OA
ATOM     24  H   UNL     1      -1.874   7.803  -1.921  0.00  0.00    +0.000 HD
ENDBRANCH  20  23
BRANCH  19  25
ATOM     25  O   UNL     1      -1.873  10.637  -2.783  0.00  0.00    +0.000 OA
ATOM     26  H   UNL     1      -2.158  10.216  -1.945  0.00  0.00    +0.000 HD
ENDBRANCH  19  25
BRANCH  18  27
ATOM     27  O   UNL     1      -0.400   8.729  -1.429  0.00  0.00    +0.000 OA
ATOM     28  H   UNL     1      -1.268   8.297  -1.578  0.00  0.00    +0.000 HD
ENDBRANCH  18  27
BRANCH  21  29
ATOM     29  C   UNL     1      -2.070   6.071  -4.773  0.00  0.00    +0.000 C 
BRANCH  29  30
ATOM     30  O   UNL     1      -2.233   5.338  -3.564  0.00  0.00    +0.000 OA
ATOM     31  H   UNL     1      -3.078   4.856  -3.644  0.00  0.00    +0.000 HD
ENDBRANCH  29  30
ENDBRANCH  21  29
ENDBRANCH   1  17
TORSDOF 12
ENDMDL
MODEL 6
REMARK VINA RESULT:    -5.564      1.740      6.207
REMARK INTER + INTRA:          -9.115
REMARK INTER:                  -8.175
REMARK INTRA:                  -0.941
REMARK UNBOUND:                -0.949
REMARK  Name = 
REMARK  12 active torsions:
REMARK  status: ('A' for Active; 'I' for Inactive)
REMARK    1  A    between atoms: C_1  and  C_2
REMARK    2  A    between atoms: C_1  and  O_23
REMARK    3  A    between atoms: C_3  and  O_22
REMARK    4  A    between atoms: C_4  and  O_21
REMARK    5  A    between atoms: C_5  and  O_20
REMARK    6  A    between atoms: C_6  and  O_8
REMARK    7  A    between atoms: O_8  and  C_9
REMARK    8  A    between atoms: C_10  and  O_19
REMARK    9  A    between atoms: C_11  and  O_18
REMARK   10  A    between atoms: C_12  and  O_17
REMARK   11  A    between atoms: C_13  and  C_15
REMARK   12  A    between atoms: C_15  and  O_16
REMARK                            x       y       z     vdW  Elec       q    Type
REMARK                         _______ _______ _______ _____ _____    ______ ____
ROOT
ATOM      1  O   UNL     1       0.354   8.660  -3.416  0.00  0.00    +0.000 OA
ENDROOT
BRANCH   1   6
ATOM      2  C   UNL     1       3.273   9.311  -4.471  0.00  0.00    +0.000 C 
ATOM      3  C   UNL     1       3.957   9.773  -3.177  0.00  0.00    +0.000 C 
ATOM      4  C   UNL     1       2.994   9.594  -1.994  0.00  0.00    +0.000 C 
ATOM      5  C   UNL     1       1.687  10.355  -2.253  0.00  0.00    +0.000 C 
ATOM      6  C   UNL     1       1.044   9.900  -3.593  0.00  0.00    +0.000 C 
ATOM      7  O   UNL     1       1.983   9.916  -4.671  0.00  0.00    +0.000 OA
BRANCH   5   8
ATOM      8  O   UNL     1       2.028  11.767  -2.287  0.00  0.00    +0.000 OA
ATOM      9  H   UNL     1       1.208  12.267  -2.130  0.00  0.00    +0.000 HD
ENDBRANCH   5   8
BRANCH   4  10
ATOM     10  O   UNL     1       3.599  10.061  -0.783  0.00  0.00    +0.000 OA
ATOM     11  H   UNL     1       4.420  10.521  -1.048  0.00  0.00    +0.000 HD
ENDBRANCH   4  10
BRANCH   3  12
ATOM     12  O   UNL     1       4.377  11.141  -3.320  0.00  0.00    +0.000 OA
ATOM     13  H   UNL     1       3.573  11.682  -3.474  0.00  0.00    +0.000 HD
ENDBRANCH   3  12
BRANCH   2  14
ATOM     14  C   UNL     1       3.217   7.774  -4.567  0.00  0.00    +0.000 C 
BRANCH  14  15
ATOM     15  O   UNL     1       2.377   7.331  -5.635  0.00  0.00    +0.000 OA
ATOM     16  H   UNL     1       1.651   6.809  -5.247  0.00  0.00    +0.000 HD
ENDBRANCH  14  15
ENDBRANCH   2  14
ENDBRANCH   1   6
BRANCH   1  17
ATOM     17  C   UNL     1      -0.522   8.345  -4.505  0.00  0.00    +0.000 C 
ATOM     18  C   UNL     1      -0.895   6.843  -4.466  0.00  0.00    +0.000 C 
ATOM     19  C   UNL     1      -2.003   6.595  -3.433  0.00  0.00    +0.000 C 
ATOM     20  C   UNL     1      -3.212   7.485  -3.740  0.00  0.00    +0.000 C 
ATOM     21  C   UNL     1      -2.744   8.954  -3.728  0.00  0.00    +0.000 C 
ATOM     22  O   UNL     1      -1.660   9.192  -4.630  0.00  0.00    +0.000 OA
BRANCH  20  23
ATOM     23  O   UNL     1      -3.820   7.148  -4.997  0.00  0.00    +0.000 OA
ATOM     24  H   UNL     1      -3.146   7.293  -5.695  0.00  0.00    +0.000 HD
ENDBRANCH  20  23
BRANCH  19  25
ATOM     25  O   UNL     1      -2.378   5.212  -3.448  0.00  0.00    +0.000 OA
ATOM     26  H   UNL     1      -2.409   4.932  -2.510  0.00  0.00    +0.000 HD
ENDBRANCH  19  25
BRANCH  18  27
ATOM     27  O   UNL     1      -1.410   6.407  -5.745  0.00  0.00    +0.000 OA
ATOM     28  H   UNL     1      -0.665   5.976  -6.217  0.00  0.00    +0.000 HD
ENDBRANCH  18  27
BRANCH  21  29
ATOM     29  C   UNL     1      -3.873   9.919  -4.121  0.00  0.00    +0.000 C 
BRANCH  29  30
ATOM     30  O   UNL     1      -4.165   9.841  -5.512  0.00  0.00    +0.000 OA
ATOM     31  H   UNL     1      -3.778  10.638  -5.921  0.00  0.00    +0.000 HD
ENDBRANCH  29  30
ENDBRANCH  21  29
ENDBRANCH   1  17
TORSDOF 12
ENDMDL
MODEL 7
REMARK VINA RESULT:    -5.537      1.511      2.353
REMARK INTER + INTRA:          -9.076
REMARK INTER:                  -8.483
REMARK INTRA:                  -0.593
REMARK UNBOUND:                -0.949
REMARK  Name = 
REMARK  12 active torsions:
REMARK  status: ('A' for Active; 'I' for Inactive)
REMARK    1  A    between atoms: C_1  and  C_2
REMARK    2  A    between atoms: C_1  and  O_23
REMARK    3  A    between atoms: C_3  and  O_22
REMARK    4  A    between atoms: C_4  and  O_21
REMARK    5  A    between atoms: C_5  and  O_20
REMARK    6  A    between atoms: C_6  and  O_8
REMARK    7  A    between atoms: O_8  and  C_9
REMARK    8  A    between atoms: C_10  and  O_19
REMARK    9  A    between atoms: C_11  and  O_18
REMARK   10  A    between atoms: C_12  and  O_17
REMARK   11  A    between atoms: C_13  and  C_15
REMARK   12  A    between atoms: C_15  and  O_16
REMARK                            x       y       z     vdW  Elec       q    Type
REMARK                         _______ _______ _______ _____ _____    ______ ____
ROOT
ATOM      1  O   UNL     1      -0.112   8.546  -3.739  0.00  0.00    +0.000 OA
ENDROOT
BRANCH   1   6
ATOM      2  C   UNL     1      -3.107   8.543  -4.779  0.00  0.00    +0.000 C 
ATOM      3  C   UNL     1      -3.823   7.851  -3.611  0.00  0.00    +0.000 C 
ATOM      4  C   UNL     1      -2.825   7.604  -2.470  0.00  0.00    +0.000 C 
ATOM      5  C   UNL     1      -1.632   6.783  -2.976  0.00  0.00    +0.000 C 
ATOM      6  C   UNL     1      -0.958   7.485  -4.188  0.00  0.00    +0.000 C 
ATOM      7  O   UNL     1      -1.909   7.859  -5.188  0.00  0.00    +0.000 OA
BRANCH   5   8
ATOM      8  O   UNL     1      -2.152   5.478  -3.347  0.00  0.00    +0.000 OA
ATOM      9  H   UNL     1      -2.866   5.262  -2.723  0.00  0.00    +0.000 HD
ENDBRANCH   5   8
BRANCH   4  10
ATOM     10  O   UNL     1      -3.465   6.918  -1.387  0.00  0.00    +0.000 OA
ATOM     11  H   UNL     1      -2.761   6.419  -0.927  0.00  0.00    +0.000 HD
ENDBRANCH   4  10
BRANCH   3  12
ATOM     12  O   UNL     1      -4.418   6.625  -4.073  0.00  0.00    +0.000 OA
ATOM     13  H   UNL     1      -4.988   6.283  -3.352  0.00  0.00    +0.000 HD
ENDBRANCH   3  12
BRANCH   2  14
ATOM     14  C   UNL     1      -2.855  10.035  -4.488  0.00  0.00    +0.000 C 
BRANCH  14  15
ATOM     15  O   UNL     1      -3.680  10.887  -5.285  0.00  0.00    +0.000 OA
ATOM     16  H   UNL     1      -3.753  10.488  -6.171  0.00  0.00    +0.000 HD
ENDBRANCH  14  15
ENDBRANCH   2  14
ENDBRANCH   1   6
BRANCH   1  17
ATOM     17  C   UNL     1       1.262   8.158  -3.623  0.00  0.00    +0.000 C 
ATOM     18  C   UNL     1       1.725   7.457  -4.924  0.00  0.00    +0.000 C 
ATOM     19  C   UNL     1       2.056   8.499  -6.002  0.00  0.00    +0.000 C 
ATOM     20  C   UNL     1       3.101   9.486  -5.472  0.00  0.00    +0.000 C 
ATOM     21  C   UNL     1       2.535  10.148  -4.199  0.00  0.00    +0.000 C 
ATOM     22  O   UNL     1       2.150   9.191  -3.208  0.00  0.00    +0.000 OA
BRANCH  20  23
ATOM     23  O   UNL     1       4.357   8.845  -5.205  0.00  0.00    +0.000 OA
ATOM     24  H   UNL     1       4.724   9.249  -4.388  0.00  0.00    +0.000 HD
ENDBRANCH  20  23
BRANCH  19  25
ATOM     25  O   UNL     1       2.537   7.840  -7.180  0.00  0.00    +0.000 OA
ATOM     26  H   UNL     1       1.940   7.076  -7.323  0.00  0.00    +0.000 HD
ENDBRANCH  19  25
BRANCH  18  27
ATOM     27  O   UNL     1       2.932   6.694  -4.696  0.00  0.00    +0.000 OA
ATOM     28  H   UNL     1       3.396   6.634  -5.558  0.00  0.00    +0.000 HD
ENDBRANCH  18  27
BRANCH  21  29
ATOM     29  C   UNL     1       3.556  11.088  -3.539  0.00  0.00    +0.000 C 
BRANCH  29  30
ATOM     30  O   UNL     1       3.112  12.439  -3.563  0.00  0.00    +0.000 OA
ATOM     31  H   UNL     1       3.907  12.990  -3.694  0.00  0.00    +0.000 HD
ENDBRANCH  29  30
ENDBRANCH  21  29
ENDBRANCH   1  17
TORSDOF 12
ENDMDL
MODEL 8
REMARK VINA RESULT:    -5.338      4.366      7.932
REMARK INTER + INTRA:          -8.783
REMARK INTER:                  -7.917
REMARK INTRA:                  -0.867
REMARK UNBOUND:                -0.949
REMARK  Name = 
REMARK  12 active torsions:
REMARK  status: ('A' for Active; 'I' for Inactive)
REMARK    1  A    between atoms: C_1  and  C_2
REMARK    2  A    between atoms: C_1  and  O_23
REMARK    3  A    between atoms: C_3  and  O_22
REMARK    4  A    between atoms: C_4  and  O_21
REMARK    5  A    between atoms: C_5  and  O_20
REMARK    6  A    between atoms: C_6  and  O_8
REMARK    7  A    between atoms: O_8  and  C_9
REMARK    8  A    between atoms: C_10  and  O_19
REMARK    9  A    between atoms: C_11  and  O_18
REMARK   10  A    between atoms: C_12  and  O_17
REMARK   11  A    between atoms: C_13  and  C_15
REMARK   12  A    between atoms: C_15  and  O_16
REMARK                            x       y       z     vdW  Elec       q    Type
REMARK                         _______ _______ _______ _____ _____    ______ ____
ROOT
ATOM      1  O   UNL     1       4.463   7.055  -9.411  0.00  0.00    +0.000 OA
ENDROOT
BRANCH   1   6
ATOM      2  C   UNL     1       3.180   6.217 -12.187  0.00  0.00    +0.000 C 
ATOM      3  C   UNL     1       4.392   5.603 -12.898  0.00  0.00    +0.000 C 
ATOM      4  C   UNL     1       5.588   5.561 -11.934  0.00  0.00    +0.000 C 
ATOM      5  C   UNL     1       5.890   6.967 -11.401  0.00  0.00    +0.000 C 
ATOM      6  C   UNL     1       4.629   7.582 -10.729  0.00  0.00    +0.000 C 
ATOM      7  O   UNL     1       3.474   7.481 -11.565  0.00  0.00    +0.000 OA
BRANCH   5   8
ATOM      8  O   UNL     1       6.317   7.761 -12.540  0.00  0.00    +0.000 OA
ATOM      9  H   UNL     1       7.116   8.248 -12.272  0.00  0.00    +0.000 HD
ENDBRANCH   5   8
BRANCH   4  10
ATOM     10  O   UNL     1       6.743   5.031 -12.594  0.00  0.00    +0.000 OA
ATOM     11  H   UNL     1       6.800   5.491 -13.455  0.00  0.00    +0.000 HD
ENDBRANCH   4  10
BRANCH   3  12
ATOM     12  O   UNL     1       4.689   6.364 -14.082  0.00  0.00    +0.000 OA
ATOM     13  H   UNL     1       4.738   5.736 -14.833  0.00  0.00    +0.000 HD
ENDBRANCH   3  12
BRANCH   2  14
ATOM     14  C   UNL     1       2.532   5.222 -11.204  0.00  0.00    +0.000 C 
BRANCH  14  15
ATOM     15  O   UNL     1       2.033   4.058 -11.865  0.00  0.00    +0.000 OA
ATOM     16  H   UNL     1       2.724   3.371 -11.822  0.00  0.00    +0.000 HD
ENDBRANCH  14  15
ENDBRANCH   2  14
ENDBRANCH   1   6
BRANCH   1  17
ATOM     17  C   UNL     1       3.458   7.741  -8.655  0.00  0.00    +0.000 C 
ATOM     18  C   UNL     1       3.031   6.880  -7.440  0.00  0.00    +0.000 C 
ATOM     19  C   UNL     1       4.053   7.015  -6.304  0.00  0.00    +0.000 C 
ATOM     20  C   UNL     1       4.231   8.492  -5.934  0.00  0.00    +0.000 C 
ATOM     21  C   UNL     1       4.683   9.253  -7.197  0.00  0.00    +0.000 C 
ATOM     22  O   UNL     1       3.782   9.080  -8.293  0.00  0.00    +0.000 OA
BRANCH  20  23
ATOM     23  O   UNL     1       3.028   9.058  -5.394  0.00  0.00    +0.000 OA
ATOM     24  H   UNL     1       3.239   9.394  -4.497  0.00  0.00    +0.000 HD
ENDBRANCH  20  23
BRANCH  19  25
ATOM     25  O   UNL     1       3.616   6.260  -5.168  0.00  0.00    +0.000 OA
ATOM     26  H   UNL     1       4.133   6.596  -4.406  0.00  0.00    +0.000 HD
ENDBRANCH  19  25
BRANCH  18  27
ATOM     27  O   UNL     1       1.760   7.327  -6.916  0.00  0.00    +0.000 OA
ATOM     28  H   UNL     1       1.075   7.054  -7.563  0.00  0.00    +0.000 HD
ENDBRANCH  18  27
BRANCH  21  29
ATOM     29  C   UNL     1       4.796  10.764  -6.945  0.00  0.00    +0.000 C 
BRANCH  29  30
ATOM     30  O   UNL     1       3.552  11.422  -7.154  0.00  0.00    +0.000 OA
ATOM     31  H   UNL     1       3.553  12.208  -6.575  0.00  0.00    +0.000 HD
ENDBRANCH  29  30
ENDBRANCH  21  29
ENDBRANCH   1  17
TORSDOF 12
ENDMDL
MODEL 9
REMARK VINA RESULT:    -5.292     12.814     15.918
REMARK INTER + INTRA:          -8.717
REMARK INTER:                  -7.768
REMARK INTRA:                  -0.949
REMARK UNBOUND:                -0.949
REMARK  Name = 
REMARK  12 active torsions:
REMARK  status: ('A' for Active; 'I' for Inactive)
REMARK    1  A    between atoms: C_1  and  C_2
REMARK    2  A    between atoms: C_1  and  O_23
REMARK    3  A    between atoms: C_3  and  O_22
REMARK    4  A    between atoms: C_4  and  O_21
REMARK    5  A    between atoms: C_5  and  O_20
REMARK    6  A    between atoms: C_6  and  O_8
REMARK    7  A    between atoms: O_8  and  C_9
REMARK    8  A    between atoms: C_10  and  O_19
REMARK    9  A    between atoms: C_11  and  O_18
REMARK   10  A    between atoms: C_12  and  O_17
REMARK   11  A    between atoms: C_13  and  C_15
REMARK   12  A    between atoms: C_15  and  O_16
REMARK                            x       y       z     vdW  Elec       q    Type
REMARK                         _______ _______ _______ _____ _____    ______ ____
ROOT
ATOM      1  O   UNL     1      -5.551  -4.016 -12.074  0.00  0.00    +0.000 OA
ENDROOT
BRANCH   1   6
ATOM      2  C   UNL     1      -8.069  -5.239 -13.564  0.00  0.00    +0.000 C 
ATOM      3  C   UNL     1      -8.076  -6.668 -13.006  0.00  0.00    +0.000 C 
ATOM      4  C   UNL     1      -6.986  -6.806 -11.932  0.00  0.00    +0.000 C 
ATOM      5  C   UNL     1      -5.618  -6.426 -12.512  0.00  0.00    +0.000 C 
ATOM      6  C   UNL     1      -5.655  -4.992 -13.113  0.00  0.00    +0.000 C 
ATOM      7  O   UNL     1      -6.765  -4.811 -13.997  0.00  0.00    +0.000 OA
BRANCH   5   8
ATOM      8  O   UNL     1      -5.308  -7.414 -13.532  0.00  0.00    +0.000 OA
ATOM      9  H   UNL     1      -5.474  -7.001 -14.396  0.00  0.00    +0.000 HD
ENDBRANCH   5   8
BRANCH   4  10
ATOM     10  O   UNL     1      -6.947  -8.146 -11.430  0.00  0.00    +0.000 OA
ATOM     11  H   UNL     1      -6.184  -8.187 -10.820  0.00  0.00    +0.000 HD
ENDBRANCH   4  10
BRANCH   3  12
ATOM     12  O   UNL     1      -7.885  -7.603 -14.082  0.00  0.00    +0.000 OA
ATOM     13  H   UNL     1      -7.829  -8.499 -13.688  0.00  0.00    +0.000 HD
ENDBRANCH   3  12
BRANCH   2  14
ATOM     14  C   UNL     1      -8.712  -4.241 -12.582  0.00  0.00    +0.000 C 
BRANCH  14  15
ATOM     15  O   UNL     1      -8.268  -2.901 -12.805  0.00  0.00    +0.000 OA
ATOM     16  H   UNL     1      -7.627  -2.918 -13.540  0.00  0.00    +0.000 HD
ENDBRANCH  14  15
ENDBRANCH   2  14
ENDBRANCH   1   6
BRANCH   1  17
ATOM     17  C   UNL     1      -4.604  -2.982 -12.368  0.00  0.00    +0.000 C 
ATOM     18  C   UNL     1      -4.510  -1.997 -11.177  0.00  0.00    +0.000 C 
ATOM     19  C   UNL     1      -3.613  -2.576 -10.075  0.00  0.00    +0.000 C 
ATOM     20  C   UNL     1      -2.236  -2.924 -10.650  0.00  0.00    +0.000 C 
ATOM     21  C   UNL     1      -2.436  -3.927 -11.804  0.00  0.00    +0.000 C 
ATOM     22  O   UNL     1      -3.329  -3.438 -12.808  0.00  0.00    +0.000 OA
BRANCH  20  23
ATOM     23  O   UNL     1      -1.532  -1.756 -11.099  0.00  0.00    +0.000 OA
ATOM     24  H   UNL     1      -1.074  -1.993 -11.934  0.00  0.00    +0.000 HD
ENDBRANCH  20  23
BRANCH  19  25
ATOM     25  O   UNL     1      -3.489  -1.631  -9.005  0.00  0.00    +0.000 OA
ATOM     26  H   UNL     1      -3.811  -0.778  -9.362  0.00  0.00    +0.000 HD
ENDBRANCH  19  25
BRANCH  18  27
ATOM     27  O   UNL     1      -3.911  -0.747 -11.590  0.00  0.00    +0.000 OA
ATOM     28  H   UNL     1      -4.599  -0.055 -11.483  0.00  0.00    +0.000 HD
ENDBRANCH  18  27
BRANCH  21  29
ATOM     29  C   UNL     1      -1.112  -4.262 -12.508  0.00  0.00    +0.000 C 
BRANCH  29  30
ATOM     30  O   UNL     1      -0.104  -4.633 -11.574  0.00  0.00    +0.000 OA
ATOM     31  H   UNL     1       0.118  -3.827 -11.071  0.00  0.00    +0.000 HD
ENDBRANCH  29  30
ENDBRANCH  21  29
ENDBRANCH   1  17
TORSDOF 12
ENDMDL
