REMARK  Name = 
REMARK  12 active torsions:
REMARK  status: ('A' for Active; 'I' for Inactive)
REMARK    1  A    between atoms: C_1  and  C_2
REMARK    2  A    between atoms: C_1  and  O_23
REMARK    3  A    between atoms: C_3  and  O_22
REMARK    4  A    between atoms: C_4  and  O_21
REMARK    5  A    between atoms: C_5  and  O_20
REMARK    6  A    between atoms: C_6  and  O_8
REMARK    7  A    between atoms: O_8  and  C_9
REMARK    8  A    between atoms: C_10  and  O_19
REMARK    9  A    between atoms: C_11  and  O_18
REMARK   10  A    between atoms: C_12  and  O_17
REMARK   11  A    between atoms: C_13  and  C_15
REMARK   12  A    between atoms: C_15  and  O_16
REMARK                            x       y       z     vdW  Elec       q    Type
REMARK                         _______ _______ _______ _____ _____    ______ ____
ROOT
ATOM      1  O   UNL     1      -0.398   0.569   1.833  0.00  0.00    +0.000 OA
ENDROOT
BRANCH   1   6
ATOM      2  C   UNL     1      -2.986   0.441   0.005  0.00  0.00    +0.000 C 
ATOM      3  C   UNL     1      -2.358   0.238  -1.380  0.00  0.00    +0.000 C 
ATOM      4  C   UNL     1      -0.838   0.069  -1.236  0.00  0.00    +0.000 C 
ATOM      5  C   UNL     1      -0.236   1.277  -0.507  0.00  0.00    +0.000 C 
ATOM      6  C   UNL     1      -0.925   1.486   0.871  0.00  0.00    +0.000 C 
ATOM      7  O   UNL     1      -2.351   1.487   0.762  0.00  0.00    +0.000 OA
BRANCH   5   8
ATOM      8  O   UNL     1      -0.434   2.427  -1.373  0.00  0.00    +0.000 OA
ATOM      9  H   UNL     1      -0.170   3.217  -0.871  0.00  0.00    +0.000 HD
ENDBRANCH   5   8
BRANCH   4  10
ATOM     10  O   UNL     1      -0.228  -0.078  -2.523  0.00  0.00    +0.000 OA
ATOM     11  H   UNL     1      -0.235   0.811  -2.931  0.00  0.00    +0.000 HD
ENDBRANCH   4  10
BRANCH   3  12
ATOM     12  O   UNL     1      -2.692   1.353  -2.225  0.00  0.00    +0.000 OA
ATOM     13  H   UNL     1      -2.010   2.044  -2.086  0.00  0.00    +0.000 HD
ENDBRANCH   3  12
BRANCH   2  14
ATOM     14  C   UNL     1      -3.066  -0.881   0.793  0.00  0.00    +0.000 C 
BRANCH  14  15
ATOM     15  O   UNL     1      -3.737  -0.723   2.045  0.00  0.00    +0.000 OA
ATOM     16  H   UNL     1      -4.361   0.021   1.957  0.00  0.00    +0.000 HD
ENDBRANCH  14  15
ENDBRANCH   2  14
ENDBRANCH   1   6
BRANCH   1  17
ATOM     17  C   UNL     1      -1.013   0.692   3.121  0.00  0.00    +0.000 C 
ATOM     18  C   UNL     1      -0.517  -0.440   4.054  0.00  0.00    +0.000 C 
ATOM     19  C   UNL     1       0.866  -0.095   4.623  0.00  0.00    +0.000 C 
ATOM     20  C   UNL     1       0.815   1.262   5.334  0.00  0.00    +0.000 C 
ATOM     21  C   UNL     1       0.340   2.320   4.317  0.00  0.00    +0.000 C 
ATOM     22  O   UNL     1      -0.913   1.981   3.718  0.00  0.00    +0.000 OA
BRANCH  20  23
ATOM     23  O   UNL     1      -0.042   1.232   6.485  0.00  0.00    +0.000 OA
ATOM     24  H   UNL     1      -0.773   0.607   6.289  0.00  0.00    +0.000 HD
ENDBRANCH  20  23
BRANCH  19  25
ATOM     25  O   UNL     1       1.287  -1.123   5.528  0.00  0.00    +0.000 OA
ATOM     26  H   UNL     1       0.532  -1.273   6.134  0.00  0.00    +0.000 HD
ENDBRANCH  19  25
BRANCH  18  27
ATOM     27  O   UNL     1      -1.406  -0.602   5.183  0.00  0.00    +0.000 OA
ATOM     28  H   UNL     1      -2.317  -0.647   4.821  0.00  0.00    +0.000 HD
ENDBRANCH  18  27
BRANCH  21  29
ATOM     29  C   UNL     1       0.166   3.701   4.967  0.00  0.00    +0.000 C 
BRANCH  29  30
ATOM     30  O   UNL     1       1.393   4.185   5.501  0.00  0.00    +0.000 OA
ATOM     31  H   UNL     1       1.508   3.752   6.368  0.00  0.00    +0.000 HD
ENDBRANCH  29  30
ENDBRANCH  21  29
ENDBRANCH   1  17
TORSDOF 12
