REMARK  Name = 
REMARK  6 active torsions:
REMARK  status: ('A' for Active; 'I' for Inactive)
REMARK    1  A    between atoms: C_1  and  O_13
REMARK    2  A    between atoms: C_2  and  O_12
REMARK    3  A    between atoms: C_3  and  O_11
REMARK    4  A    between atoms: C_4  and  O_10
REMARK    5  A    between atoms: C_5  and  C_7
REMARK    6  A    between atoms: C_7  and  O_9
REMARK                            x       y       z     vdW  Elec       q    Type
REMARK                         _______ _______ _______ _____ _____    ______ ____
ROOT
ATOM      1  C   UNL     1       0.712   1.143  -0.318  0.00  0.00    +0.000 C 
ATOM      2  C   UNL     1       1.439  -0.123   0.175  0.00  0.00    +0.000 C 
ATOM      3  C   UNL     1       0.640  -1.358  -0.249  0.00  0.00    +0.000 C 
ATOM      4  C   UNL     1      -0.828  -1.248   0.188  0.00  0.00    +0.000 C 
ATOM      5  C   UNL     1      -1.436   0.079  -0.287  0.00  0.00    +0.000 C 
ATOM      6  O   UNL     1      -0.641   1.205   0.111  0.00  0.00    +0.000 OA
ENDROOT
BRANCH   5   7
ATOM      7  C   UNL     1      -2.835   0.209   0.315  0.00  0.00    +0.000 C 
ATOM      8  O   UNL     1      -3.138   0.701   1.387  0.00  0.00    +0.000 OA
BRANCH   7   9
ATOM      9  O   UNL     1      -3.796  -0.288  -0.495  0.00  0.00    +0.000 OA
ATOM     10  H   UNL     1      -4.620  -0.188   0.028  0.00  0.00    +0.000 HD
ENDBRANCH   7   9
ENDBRANCH   5   7
BRANCH   4  11
ATOM     11  O   UNL     1      -1.537  -2.371  -0.359  0.00  0.00    +0.000 OA
ATOM     12  H   UNL     1      -1.116  -2.560  -1.223  0.00  0.00    +0.000 HD
ENDBRANCH   4  11
BRANCH   3  13
ATOM     13  O   UNL     1       0.678  -1.554  -1.679  0.00  0.00    +0.000 OA
ATOM     14  H   UNL     1       0.613  -0.672  -2.106  0.00  0.00    +0.000 HD
ENDBRANCH   3  13
BRANCH   2  15
ATOM     15  O   UNL     1       1.607  -0.121   1.593  0.00  0.00    +0.000 OA
ATOM     16  H   UNL     1       2.223   0.596   1.825  0.00  0.00    +0.000 HD
ENDBRANCH   2  15
BRANCH   1  17
ATOM     17  O   UNL     1       0.788   1.193  -1.740  0.00  0.00    +0.000 OA
ATOM     18  H   UNL     1       1.197   2.049  -1.961  0.00  0.00    +0.000 HD
ENDBRANCH   1  17
TORSDOF 6
