MODEL 1
REMARK VINA RESULT:    -5.868      0.000      0.000
REMARK INTER + INTRA:          -7.314
REMARK INTER:                  -7.035
REMARK INTRA:                  -0.279
REMARK UNBOUND:                -0.245
REMARK  Name = 
REMARK  6 active torsions:
REMARK  status: ('A' for Active; 'I' for Inactive)
REMARK    1  A    between atoms: C_1  and  O_13
REMARK    2  A    between atoms: C_2  and  O_12
REMARK    3  A    between atoms: C_3  and  O_11
REMARK    4  A    between atoms: C_4  and  O_10
REMARK    5  A    between atoms: C_5  and  C_7
REMARK    6  A    between atoms: C_7  and  O_9
REMARK                            x       y       z     vdW  Elec       q    Type
REMARK                         _______ _______ _______ _____ _____    ______ ____
ROOT
ATOM      1  C   UNL     1      -5.897  -3.409  -5.826  0.00  0.00    +0.000 C 
ATOM      2  C   UNL     1      -4.875  -3.785  -4.736  0.00  0.00    +0.000 C 
ATOM      3  C   UNL     1      -4.859  -5.307  -4.567  0.00  0.00    +0.000 C 
ATOM      4  C   UNL     1      -6.275  -5.856  -4.338  0.00  0.00    +0.000 C 
ATOM      5  C   UNL     1      -7.231  -5.362  -5.433  0.00  0.00    +0.000 C 
ATOM      6  O   UNL     1      -7.193  -3.934  -5.572  0.00  0.00    +0.000 OA
ENDROOT
BRANCH   5   7
ATOM      7  C   UNL     1      -8.649  -5.796  -5.064  0.00  0.00    +0.000 C 
ATOM      8  O   UNL     1      -9.005  -6.881  -4.639  0.00  0.00    +0.000 OA
BRANCH   7   9
ATOM      9  O   UNL     1      -9.556  -4.811  -5.243  0.00  0.00    +0.000 OA
ATOM     10  H   UNL     1      -9.756  -4.506  -4.332  0.00  0.00    +0.000 HD
ENDBRANCH   7   9
ENDBRANCH   5   7
BRANCH   4  11
ATOM     11  O   UNL     1      -6.196  -7.290  -4.324  0.00  0.00    +0.000 OA
ATOM     12  H   UNL     1      -5.587  -7.533  -5.052  0.00  0.00    +0.000 HD
ENDBRANCH   4  11
BRANCH   3  13
ATOM     13  O   UNL     1      -4.294  -5.967  -5.720  0.00  0.00    +0.000 OA
ATOM     14  H   UNL     1      -5.030  -6.381  -6.221  0.00  0.00    +0.000 HD
ENDBRANCH   3  13
BRANCH   2  15
ATOM     15  O   UNL     1      -5.176  -3.164  -3.487  0.00  0.00    +0.000 OA
ATOM     16  H   UNL     1      -4.417  -3.293  -2.892  0.00  0.00    +0.000 HD
ENDBRANCH   2  15
BRANCH   1  17
ATOM     17  O   UNL     1      -5.413  -3.860  -7.088  0.00  0.00    +0.000 OA
ATOM     18  H   UNL     1      -4.528  -3.468  -7.196  0.00  0.00    +0.000 HD
ENDBRANCH   1  17
TORSDOF 6
ENDMDL
MODEL 2
REMARK VINA RESULT:    -5.677      1.494      3.469
REMARK INTER + INTRA:          -7.084
REMARK INTER:                  -6.823
REMARK INTRA:                  -0.261
REMARK UNBOUND:                -0.245
REMARK  Name = 
REMARK  6 active torsions:
REMARK  status: ('A' for Active; 'I' for Inactive)
REMARK    1  A    between atoms: C_1  and  O_13
REMARK    2  A    between atoms: C_2  and  O_12
REMARK    3  A    between atoms: C_3  and  O_11
REMARK    4  A    between atoms: C_4  and  O_10
REMARK    5  A    between atoms: C_5  and  C_7
REMARK    6  A    between atoms: C_7  and  O_9
REMARK                            x       y       z     vdW  Elec       q    Type
REMARK                         _______ _______ _______ _____ _____    ______ ____
ROOT
ATOM      1  C   UNL     1      -5.119  -4.012  -4.686  0.00  0.00    +0.000 C 
ATOM      2  C   UNL     1      -6.583  -3.830  -5.133  0.00  0.00    +0.000 C 
ATOM      3  C   UNL     1      -7.448  -4.904  -4.467  0.00  0.00    +0.000 C 
ATOM      4  C   UNL     1      -6.873  -6.308  -4.704  0.00  0.00    +0.000 C 
ATOM      5  C   UNL     1      -5.394  -6.362  -4.299  0.00  0.00    +0.000 C 
ATOM      6  O   UNL     1      -4.628  -5.324  -4.926  0.00  0.00    +0.000 OA
ENDROOT
BRANCH   5   7
ATOM      7  C   UNL     1      -4.833  -7.723  -4.710  0.00  0.00    +0.000 C 
ATOM      8  O   UNL     1      -4.046  -7.960  -5.609  0.00  0.00    +0.000 OA
BRANCH   7   9
ATOM      9  O   UNL     1      -5.296  -8.730  -3.937  0.00  0.00    +0.000 OA
ATOM     10  H   UNL     1      -5.790  -9.301  -4.564  0.00  0.00    +0.000 HD
ENDBRANCH   7   9
ENDBRANCH   5   7
BRANCH   4  11
ATOM     11  O   UNL     1      -7.656  -7.240  -3.943  0.00  0.00    +0.000 OA
ATOM     12  H   UNL     1      -8.583  -6.929  -4.008  0.00  0.00    +0.000 HD
ENDBRANCH   4  11
BRANCH   3  13
ATOM     13  O   UNL     1      -7.563  -4.691  -3.044  0.00  0.00    +0.000 OA
ATOM     14  H   UNL     1      -7.494  -5.565  -2.602  0.00  0.00    +0.000 HD
ENDBRANCH   3  13
BRANCH   2  15
ATOM     15  O   UNL     1      -6.719  -3.913  -6.552  0.00  0.00    +0.000 OA
ATOM     16  H   UNL     1      -5.830  -3.995  -6.938  0.00  0.00    +0.000 HD
ENDBRANCH   2  15
BRANCH   1  17
ATOM     17  O   UNL     1      -5.016  -3.686  -3.303  0.00  0.00    +0.000 OA
ATOM     18  H   UNL     1      -5.019  -4.533  -2.822  0.00  0.00    +0.000 HD
ENDBRANCH   1  17
TORSDOF 6
ENDMDL
MODEL 3
REMARK VINA RESULT:    -5.478      1.265      2.102
REMARK INTER + INTRA:          -6.844
REMARK INTER:                  -6.604
REMARK INTRA:                  -0.240
REMARK UNBOUND:                -0.245
REMARK  Name = 
REMARK  6 active torsions:
REMARK  status: ('A' for Active; 'I' for Inactive)
REMARK    1  A    between atoms: C_1  and  O_13
REMARK    2  A    between atoms: C_2  and  O_12
REMARK    3  A    between atoms: C_3  and  O_11
REMARK    4  A    between atoms: C_4  and  O_10
REMARK    5  A    between atoms: C_5  and  C_7
REMARK    6  A    between atoms: C_7  and  O_9
REMARK                            x       y       z     vdW  Elec       q    Type
REMARK                         _______ _______ _______ _____ _____    ______ ____
ROOT
ATOM      1  C   UNL     1      -5.382  -4.884  -6.388  0.00  0.00    +0.000 C 
ATOM      2  C   UNL     1      -5.260  -3.444  -5.853  0.00  0.00    +0.000 C 
ATOM      3  C   UNL     1      -5.812  -3.389  -4.427  0.00  0.00    +0.000 C 
ATOM      4  C   UNL     1      -7.226  -3.984  -4.354  0.00  0.00    +0.000 C 
ATOM      5  C   UNL     1      -7.256  -5.385  -4.979  0.00  0.00    +0.000 C 
ATOM      6  O   UNL     1      -6.706  -5.393  -6.304  0.00  0.00    +0.000 OA
ENDROOT
BRANCH   5   7
ATOM      7  C   UNL     1      -8.709  -5.857  -5.032  0.00  0.00    +0.000 C 
ATOM      8  O   UNL     1      -9.134  -6.976  -4.809  0.00  0.00    +0.000 OA
BRANCH   7   9
ATOM      9  O   UNL     1      -9.565  -4.863  -5.358  0.00  0.00    +0.000 OA
ATOM     10  H   UNL     1      -9.512  -4.817  -6.336  0.00  0.00    +0.000 HD
ENDBRANCH   7   9
ENDBRANCH   5   7
BRANCH   4  11
ATOM     11  O   UNL     1      -7.620  -4.021  -2.974  0.00  0.00    +0.000 OA
ATOM     12  H   UNL     1      -7.968  -3.128  -2.769  0.00  0.00    +0.000 HD
ENDBRANCH   4  11
BRANCH   3  13
ATOM     13  O   UNL     1      -4.968  -4.103  -3.499  0.00  0.00    +0.000 OA
ATOM     14  H   UNL     1      -5.049  -5.062  -3.694  0.00  0.00    +0.000 HD
ENDBRANCH   3  13
BRANCH   2  15
ATOM     15  O   UNL     1      -5.959  -2.510  -6.677  0.00  0.00    +0.000 OA
ATOM     16  H   UNL     1      -6.254  -2.974  -7.480  0.00  0.00    +0.000 HD
ENDBRANCH   2  15
BRANCH   1  17
ATOM     17  O   UNL     1      -4.479  -5.719  -5.669  0.00  0.00    +0.000 OA
ATOM     18  H   UNL     1      -3.968  -5.130  -5.086  0.00  0.00    +0.000 HD
ENDBRANCH   1  17
TORSDOF 6
ENDMDL
MODEL 4
REMARK VINA RESULT:    -5.453      6.229      8.503
REMARK INTER + INTRA:          -6.814
REMARK INTER:                  -6.560
REMARK INTRA:                  -0.254
REMARK UNBOUND:                -0.245
REMARK  Name = 
REMARK  6 active torsions:
REMARK  status: ('A' for Active; 'I' for Inactive)
REMARK    1  A    between atoms: C_1  and  O_13
REMARK    2  A    between atoms: C_2  and  O_12
REMARK    3  A    between atoms: C_3  and  O_11
REMARK    4  A    between atoms: C_4  and  O_10
REMARK    5  A    between atoms: C_5  and  C_7
REMARK    6  A    between atoms: C_7  and  O_9
REMARK                            x       y       z     vdW  Elec       q    Type
REMARK                         _______ _______ _______ _____ _____    ______ ____
ROOT
ATOM      1  C   UNL     1      -4.289  -3.454 -10.593  0.00  0.00    +0.000 C 
ATOM      2  C   UNL     1      -2.880  -4.074 -10.678  0.00  0.00    +0.000 C 
ATOM      3  C   UNL     1      -1.842  -2.952 -10.762  0.00  0.00    +0.000 C 
ATOM      4  C   UNL     1      -2.180  -1.965 -11.889  0.00  0.00    +0.000 C 
ATOM      5  C   UNL     1      -3.626  -1.466 -11.756  0.00  0.00    +0.000 C 
ATOM      6  O   UNL     1      -4.559  -2.551 -11.655  0.00  0.00    +0.000 OA
ENDROOT
BRANCH   5   7
ATOM      7  C   UNL     1      -3.959  -0.625 -12.989  0.00  0.00    +0.000 C 
ATOM      8  O   UNL     1      -4.372  -1.018 -14.065  0.00  0.00    +0.000 OA
BRANCH   7   9
ATOM      9  O   UNL     1      -3.761   0.696 -12.784  0.00  0.00    +0.000 OA
ATOM     10  H   UNL     1      -3.592   0.762 -11.820  0.00  0.00    +0.000 HD
ENDBRANCH   7   9
ENDBRANCH   5   7
BRANCH   4  11
ATOM     11  O   UNL     1      -1.245  -0.877 -11.818  0.00  0.00    +0.000 OA
ATOM     12  H   UNL     1      -1.285  -0.431 -12.690  0.00  0.00    +0.000 HD
ENDBRANCH   4  11
BRANCH   3  13
ATOM     13  O   UNL     1      -1.749  -2.216  -9.523  0.00  0.00    +0.000 OA
ATOM     14  H   UNL     1      -0.807  -1.973  -9.387  0.00  0.00    +0.000 HD
ENDBRANCH   3  13
BRANCH   2  15
ATOM     15  O   UNL     1      -2.747  -4.939 -11.806  0.00  0.00    +0.000 OA
ATOM     16  H   UNL     1      -1.867  -5.352 -11.770  0.00  0.00    +0.000 HD
ENDBRANCH   2  15
BRANCH   1  17
ATOM     17  O   UNL     1      -4.429  -2.802  -9.334  0.00  0.00    +0.000 OA
ATOM     18  H   UNL     1      -5.295  -2.357  -9.353  0.00  0.00    +0.000 HD
ENDBRANCH   1  17
TORSDOF 6
ENDMDL
MODEL 5
REMARK VINA RESULT:    -5.358     11.982     13.831
REMARK INTER + INTRA:          -6.700
REMARK INTER:                  -6.443
REMARK INTRA:                  -0.257
REMARK UNBOUND:                -0.245
REMARK  Name = 
REMARK  6 active torsions:
REMARK  status: ('A' for Active; 'I' for Inactive)
REMARK    1  A    between atoms: C_1  and  O_13
REMARK    2  A    between atoms: C_2  and  O_12
REMARK    3  A    between atoms: C_3  and  O_11
REMARK    4  A    between atoms: C_4  and  O_10
REMARK    5  A    between atoms: C_5  and  C_7
REMARK    6  A    between atoms: C_7  and  O_9
REMARK                            x       y       z     vdW  Elec       q    Type
REMARK                         _______ _______ _______ _____ _____    ______ ____
ROOT
ATOM      1  C   UNL     1      -2.464   6.775  -3.466  0.00  0.00    +0.000 C 
ATOM      2  C   UNL     1      -2.941   7.032  -4.908  0.00  0.00    +0.000 C 
ATOM      3  C   UNL     1      -1.877   6.526  -5.886  0.00  0.00    +0.000 C 
ATOM      4  C   UNL     1      -0.494   7.105  -5.552  0.00  0.00    +0.000 C 
ATOM      5  C   UNL     1      -0.148   6.862  -4.076  0.00  0.00    +0.000 C 
ATOM      6  O   UNL     1      -1.183   7.329  -3.200  0.00  0.00    +0.000 OA
ENDROOT
BRANCH   5   7
ATOM      7  C   UNL     1       1.153   7.600  -3.761  0.00  0.00    +0.000 C 
ATOM      8  O   UNL     1       1.295   8.586  -3.060  0.00  0.00    +0.000 OA
BRANCH   7   9
ATOM      9  O   UNL     1       2.228   7.031  -4.350  0.00  0.00    +0.000 OA
ATOM     10  H   UNL     1       2.978   7.288  -3.772  0.00  0.00    +0.000 HD
ENDBRANCH   7   9
ENDBRANCH   5   7
BRANCH   4  11
ATOM     11  O   UNL     1       0.466   6.483  -6.421  0.00  0.00    +0.000 OA
ATOM     12  H   UNL     1      -0.054   5.985  -7.084  0.00  0.00    +0.000 HD
ENDBRANCH   4  11
BRANCH   3  13
ATOM     13  O   UNL     1      -1.784   5.085  -5.876  0.00  0.00    +0.000 OA
ATOM     14  H   UNL     1      -1.245   4.812  -6.650  0.00  0.00    +0.000 HD
ENDBRANCH   3  13
BRANCH   2  15
ATOM     15  O   UNL     1      -3.193   8.417  -5.145  0.00  0.00    +0.000 OA
ATOM     16  H   UNL     1      -3.676   8.774  -4.379  0.00  0.00    +0.000 HD
ENDBRANCH   2  15
BRANCH   1  17
ATOM     17  O   UNL     1      -2.461   5.370  -3.226  0.00  0.00    +0.000 OA
ATOM     18  H   UNL     1      -3.053   4.979  -3.892  0.00  0.00    +0.000 HD
ENDBRANCH   1  17
TORSDOF 6
ENDMDL
MODEL 6
REMARK VINA RESULT:    -5.312     11.342     13.094
REMARK INTER + INTRA:          -6.644
REMARK INTER:                  -6.368
REMARK INTRA:                  -0.276
REMARK UNBOUND:                -0.245
REMARK  Name = 
REMARK  6 active torsions:
REMARK  status: ('A' for Active; 'I' for Inactive)
REMARK    1  A    between atoms: C_1  and  O_13
REMARK    2  A    between atoms: C_2  and  O_12
REMARK    3  A    between atoms: C_3  and  O_11
REMARK    4  A    between atoms: C_4  and  O_10
REMARK    5  A    between atoms: C_5  and  C_7
REMARK    6  A    between atoms: C_7  and  O_9
REMARK                            x       y       z     vdW  Elec       q    Type
REMARK                         _______ _______ _______ _____ _____    ______ ____
ROOT
ATOM      1  C   UNL     1      -0.611   7.854  -4.138  0.00  0.00    +0.000 C 
ATOM      2  C   UNL     1      -2.141   7.994  -4.021  0.00  0.00    +0.000 C 
ATOM      3  C   UNL     1      -2.793   6.639  -4.306  0.00  0.00    +0.000 C 
ATOM      4  C   UNL     1      -2.300   6.053  -5.637  0.00  0.00    +0.000 C 
ATOM      5  C   UNL     1      -0.766   6.027  -5.682  0.00  0.00    +0.000 C 
ATOM      6  O   UNL     1      -0.200   7.311  -5.385  0.00  0.00    +0.000 OA
ENDROOT
BRANCH   5   7
ATOM      7  C   UNL     1      -0.334   5.596  -7.084  0.00  0.00    +0.000 C 
ATOM      8  O   UNL     1      -1.031   5.116  -7.960  0.00  0.00    +0.000 OA
BRANCH   7   9
ATOM      9  O   UNL     1       0.980   5.812  -7.311  0.00  0.00    +0.000 OA
ATOM     10  H   UNL     1       1.147   5.371  -8.171  0.00  0.00    +0.000 HD
ENDBRANCH   7   9
ENDBRANCH   5   7
BRANCH   4  11
ATOM     11  O   UNL     1      -2.847   4.732  -5.768  0.00  0.00    +0.000 OA
ATOM     12  H   UNL     1      -2.730   4.483  -6.708  0.00  0.00    +0.000 HD
ENDBRANCH   4  11
BRANCH   3  13
ATOM     13  O   UNL     1      -2.520   5.684  -3.257  0.00  0.00    +0.000 OA
ATOM     14  H   UNL     1      -2.785   6.090  -2.403  0.00  0.00    +0.000 HD
ENDBRANCH   3  13
BRANCH   2  15
ATOM     15  O   UNL     1      -2.655   8.975  -4.923  0.00  0.00    +0.000 OA
ATOM     16  H   UNL     1      -2.277   8.805  -5.804  0.00  0.00    +0.000 HD
ENDBRANCH   2  15
BRANCH   1  17
ATOM     17  O   UNL     1      -0.139   7.047  -3.062  0.00  0.00    +0.000 OA
ATOM     18  H   UNL     1       0.299   6.279  -3.470  0.00  0.00    +0.000 HD
ENDBRANCH   1  17
TORSDOF 6
ENDMDL
MODEL 7
REMARK VINA RESULT:    -5.270     12.274     14.630
REMARK INTER + INTRA:          -6.593
REMARK INTER:                  -6.315
REMARK INTRA:                  -0.278
REMARK UNBOUND:                -0.245
REMARK  Name = 
REMARK  6 active torsions:
REMARK  status: ('A' for Active; 'I' for Inactive)
REMARK    1  A    between atoms: C_1  and  O_13
REMARK    2  A    between atoms: C_2  and  O_12
REMARK    3  A    between atoms: C_3  and  O_11
REMARK    4  A    between atoms: C_4  and  O_10
REMARK    5  A    between atoms: C_5  and  C_7
REMARK    6  A    between atoms: C_7  and  O_9
REMARK                            x       y       z     vdW  Elec       q    Type
REMARK                         _______ _______ _______ _____ _____    ______ ____
ROOT
ATOM      1  C   UNL     1      -0.993   6.602  -4.882  0.00  0.00    +0.000 C 
ATOM      2  C   UNL     1      -2.408   6.325  -4.341  0.00  0.00    +0.000 C 
ATOM      3  C   UNL     1      -3.056   7.649  -3.926  0.00  0.00    +0.000 C 
ATOM      4  C   UNL     1      -2.146   8.438  -2.974  0.00  0.00    +0.000 C 
ATOM      5  C   UNL     1      -0.741   8.594  -3.572  0.00  0.00    +0.000 C 
ATOM      6  O   UNL     1      -0.186   7.332  -3.969  0.00  0.00    +0.000 OA
ENDROOT
BRANCH   5   7
ATOM      7  C   UNL     1       0.161   9.235  -2.517  0.00  0.00    +0.000 C 
ATOM      8  O   UNL     1       0.918   8.671  -1.747  0.00  0.00    +0.000 OA
BRANCH   7   9
ATOM      9  O   UNL     1       0.066  10.583  -2.504  0.00  0.00    +0.000 OA
ATOM     10  H   UNL     1      -0.113  10.797  -1.563  0.00  0.00    +0.000 HD
ENDBRANCH   7   9
ENDBRANCH   5   7
BRANCH   4  11
ATOM     11  O   UNL     1      -2.757   9.717  -2.739  0.00  0.00    +0.000 OA
ATOM     12  H   UNL     1      -2.266  10.356  -3.296  0.00  0.00    +0.000 HD
ENDBRANCH   4  11
BRANCH   3  13
ATOM     13  O   UNL     1      -3.352   8.480  -5.069  0.00  0.00    +0.000 OA
ATOM     14  H   UNL     1      -3.461   7.893  -5.849  0.00  0.00    +0.000 HD
ENDBRANCH   3  13
BRANCH   2  15
ATOM     15  O   UNL     1      -2.386   5.430  -3.229  0.00  0.00    +0.000 OA
ATOM     16  H   UNL     1      -3.079   4.760  -3.364  0.00  0.00    +0.000 HD
ENDBRANCH   2  15
BRANCH   1  17
ATOM     17  O   UNL     1      -1.101   7.300  -6.120  0.00  0.00    +0.000 OA
ATOM     18  H   UNL     1      -0.773   6.691  -6.806  0.00  0.00    +0.000 HD
ENDBRANCH   1  17
TORSDOF 6
ENDMDL
MODEL 8
REMARK VINA RESULT:    -5.236      1.393      2.976
REMARK INTER + INTRA:          -6.552
REMARK INTER:                  -6.340
REMARK INTRA:                  -0.212
REMARK UNBOUND:                -0.245
REMARK  Name = 
REMARK  6 active torsions:
REMARK  status: ('A' for Active; 'I' for Inactive)
REMARK    1  A    between atoms: C_1  and  O_13
REMARK    2  A    between atoms: C_2  and  O_12
REMARK    3  A    between atoms: C_3  and  O_11
REMARK    4  A    between atoms: C_4  and  O_10
REMARK    5  A    between atoms: C_5  and  C_7
REMARK    6  A    between atoms: C_7  and  O_9
REMARK                            x       y       z     vdW  Elec       q    Type
REMARK                         _______ _______ _______ _____ _____    ______ ____
ROOT
ATOM      1  C   UNL     1      -5.153  -6.076  -4.738  0.00  0.00    +0.000 C 
ATOM      2  C   UNL     1      -5.291  -5.332  -6.080  0.00  0.00    +0.000 C 
ATOM      3  C   UNL     1      -6.498  -4.393  -6.011  0.00  0.00    +0.000 C 
ATOM      4  C   UNL     1      -7.760  -5.141  -5.557  0.00  0.00    +0.000 C 
ATOM      5  C   UNL     1      -7.495  -5.908  -4.255  0.00  0.00    +0.000 C 
ATOM      6  O   UNL     1      -6.342  -6.755  -4.358  0.00  0.00    +0.000 OA
ENDROOT
BRANCH   5   7
ATOM      7  C   UNL     1      -8.724  -6.762  -3.942  0.00  0.00    +0.000 C 
ATOM      8  O   UNL     1      -9.513  -7.243  -4.735  0.00  0.00    +0.000 OA
BRANCH   7   9
ATOM      9  O   UNL     1      -8.882  -6.977  -2.617  0.00  0.00    +0.000 OA
ATOM     10  H   UNL     1      -8.189  -6.419  -2.203  0.00  0.00    +0.000 HD
ENDBRANCH   7   9
ENDBRANCH   5   7
BRANCH   4  11
ATOM     11  O   UNL     1      -8.809  -4.174  -5.388  0.00  0.00    +0.000 OA
ATOM     12  H   UNL     1      -9.555  -4.656  -4.974  0.00  0.00    +0.000 HD
ENDBRANCH   4  11
BRANCH   3  13
ATOM     13  O   UNL     1      -6.268  -3.292  -5.106  0.00  0.00    +0.000 OA
ATOM     14  H   UNL     1      -6.877  -3.397  -4.343  0.00  0.00    +0.000 HD
ENDBRANCH   3  13
BRANCH   2  15
ATOM     15  O   UNL     1      -5.446  -6.236  -7.175  0.00  0.00    +0.000 OA
ATOM     16  H   UNL     1      -6.203  -5.940  -7.709  0.00  0.00    +0.000 HD
ENDBRANCH   2  15
BRANCH   1  17
ATOM     17  O   UNL     1      -4.768  -5.143  -3.732  0.00  0.00    +0.000 OA
ATOM     18  H   UNL     1      -5.478  -4.478  -3.691  0.00  0.00    +0.000 HD
ENDBRANCH   1  17
TORSDOF 6
ENDMDL
MODEL 9
REMARK VINA RESULT:    -5.103     11.989     14.161
REMARK INTER + INTRA:          -6.393
REMARK INTER:                  -6.148
REMARK INTRA:                  -0.245
REMARK UNBOUND:                -0.245
REMARK  Name = 
REMARK  6 active torsions:
REMARK  status: ('A' for Active; 'I' for Inactive)
REMARK    1  A    between atoms: C_1  and  O_13
REMARK    2  A    between atoms: C_2  and  O_12
REMARK    3  A    between atoms: C_3  and  O_11
REMARK    4  A    between atoms: C_4  and  O_10
REMARK    5  A    between atoms: C_5  and  C_7
REMARK    6  A    between atoms: C_7  and  O_9
REMARK                            x       y       z     vdW  Elec       q    Type
REMARK                         _______ _______ _______ _____ _____    ______ ____
ROOT
ATOM      1  C   UNL     1      -2.456   6.215  -4.848  0.00  0.00    +0.000 C 
ATOM      2  C   UNL     1      -1.076   6.114  -5.526  0.00  0.00    +0.000 C 
ATOM      3  C   UNL     1      -0.048   6.880  -4.688  0.00  0.00    +0.000 C 
ATOM      4  C   UNL     1      -0.521   8.312  -4.401  0.00  0.00    +0.000 C 
ATOM      5  C   UNL     1      -1.933   8.306  -3.799  0.00  0.00    +0.000 C 
ATOM      6  O   UNL     1      -2.854   7.556  -4.604  0.00  0.00    +0.000 OA
ENDROOT
BRANCH   5   7
ATOM      7  C   UNL     1      -2.415   9.752  -3.691  0.00  0.00    +0.000 C 
ATOM      8  O   UNL     1      -2.195  10.542  -2.790  0.00  0.00    +0.000 OA
BRANCH   7   9
ATOM      9  O   UNL     1      -3.154  10.133  -4.757  0.00  0.00    +0.000 OA
ATOM     10  H   UNL     1      -2.834  11.040  -4.953  0.00  0.00    +0.000 HD
ENDBRANCH   7   9
ENDBRANCH   5   7
BRANCH   4  11
ATOM     11  O   UNL     1       0.424   8.918  -3.505  0.00  0.00    +0.000 OA
ATOM     12  H   UNL     1       0.717   8.205  -2.901  0.00  0.00    +0.000 HD
ENDBRANCH   4  11
BRANCH   3  13
ATOM     13  O   UNL     1       0.211   6.222  -3.429  0.00  0.00    +0.000 OA
ATOM     14  H   UNL     1      -0.611   5.760  -3.156  0.00  0.00    +0.000 HD
ENDBRANCH   3  13
BRANCH   2  15
ATOM     15  O   UNL     1      -1.097   6.634  -6.856  0.00  0.00    +0.000 OA
ATOM     16  H   UNL     1      -1.750   7.355  -6.889  0.00  0.00    +0.000 HD
ENDBRANCH   2  15
BRANCH   1  17
ATOM     17  O   UNL     1      -2.427   5.472  -3.632  0.00  0.00    +0.000 OA
ATOM     18  H   UNL     1      -1.488   5.286  -3.449  0.00  0.00    +0.000 HD
ENDBRANCH   1  17
TORSDOF 6
ENDMDL
