MODEL 1
REMARK VINA RESULT:    -6.741      0.000      0.000
REMARK INTER + INTRA:         -10.670
REMARK INTER:                  -9.403
REMARK INTRA:                  -1.267
REMARK UNBOUND:                -0.777
REMARK  Name = 
REMARK  12 active torsions:
REMARK  status: ('A' for Active; 'I' for Inactive)
REMARK    1  A    between atoms: C_1  and  C_2
REMARK    2  A    between atoms: C_1  and  O_23
REMARK    3  A    between atoms: C_3  and  O_22
REMARK    4  A    between atoms: C_4  and  O_21
REMARK    5  A    between atoms: C_5  and  O_20
REMARK    6  A    between atoms: C_6  and  O_8
REMARK    7  A    between atoms: O_8  and  C_9
REMARK    8  A    between atoms: C_10  and  C_18
REMARK    9  A    between atoms: C_12  and  O_17
REMARK   10  A    between atoms: C_13  and  O_16
REMARK   11  A    between atoms: C_14  and  O_15
REMARK   12  A    between atoms: C_18  and  O_19
REMARK                            x       y       z     vdW  Elec       q    Type
REMARK                         _______ _______ _______ _____ _____    ______ ____
ROOT
ATOM      1  O   UNL     1       0.656   9.049  -2.772  0.00  0.00    +0.000 OA
ENDROOT
BRANCH   1   6
ATOM      2  C   UNL     1       3.407   8.407  -5.020  0.00  0.00    +0.000 C 
ATOM      3  C   UNL     1       4.513   9.317  -4.478  0.00  0.00    +0.000 C 
ATOM      4  C   UNL     1       3.906  10.605  -3.900  0.00  0.00    +0.000 C 
ATOM      5  C   UNL     1       2.764  10.303  -2.907  0.00  0.00    +0.000 C 
ATOM      6  C   UNL     1       1.737   9.400  -3.634  0.00  0.00    +0.000 C 
ATOM      7  O   UNL     1       2.401   8.212  -4.037  0.00  0.00    +0.000 OA
BRANCH   5   8
ATOM      8  O   UNL     1       2.206  11.527  -2.419  0.00  0.00    +0.000 OA
ATOM      9  H   UNL     1       1.242  11.435  -2.347  0.00  0.00    +0.000 HD
ENDBRANCH   5   8
BRANCH   4  10
ATOM     10  O   UNL     1       4.952  11.390  -3.314  0.00  0.00    +0.000 OA
ATOM     11  H   UNL     1       4.634  12.307  -3.225  0.00  0.00    +0.000 HD
ENDBRANCH   4  10
BRANCH   3  12
ATOM     12  O   UNL     1       5.436   9.601  -5.538  0.00  0.00    +0.000 OA
ATOM     13  H   UNL     1       6.333   9.385  -5.216  0.00  0.00    +0.000 HD
ENDBRANCH   3  12
BRANCH   2  14
ATOM     14  C   UNL     1       3.954   7.027  -5.419  0.00  0.00    +0.000 C 
BRANCH  14  15
ATOM     15  O   UNL     1       3.036   6.301  -6.226  0.00  0.00    +0.000 OA
ATOM     16  H   UNL     1       2.230   6.158  -5.686  0.00  0.00    +0.000 HD
ENDBRANCH  14  15
ENDBRANCH   2  14
ENDBRANCH   1   6
BRANCH   1  17
ATOM     17  C   UNL     1      -0.550   8.567  -3.404  0.00  0.00    +0.000 C 
ATOM     18  C   UNL     1      -1.823   9.383  -3.056  0.00  0.00    +0.000 C 
ATOM     19  O   UNL     1      -2.974   8.885  -3.768  0.00  0.00    +0.000 OA
ATOM     20  C   UNL     1      -3.270   7.549  -3.377  0.00  0.00    +0.000 C 
ATOM     21  C   UNL     1      -2.134   6.613  -3.822  0.00  0.00    +0.000 C 
ATOM     22  C   UNL     1      -0.812   7.061  -3.185  0.00  0.00    +0.000 C 
BRANCH  22  23
ATOM     23  O   UNL     1       0.262   6.279  -3.727  0.00  0.00    +0.000 OA
ATOM     24  H   UNL     1       0.045   6.116  -4.667  0.00  0.00    +0.000 HD
ENDBRANCH  22  23
BRANCH  21  25
ATOM     25  O   UNL     1      -2.362   5.238  -3.475  0.00  0.00    +0.000 OA
ATOM     26  H   UNL     1      -1.820   4.675  -4.057  0.00  0.00    +0.000 HD
ENDBRANCH  21  25
BRANCH  20  27
ATOM     27  O   UNL     1      -4.514   7.163  -3.935  0.00  0.00    +0.000 OA
ATOM     28  H   UNL     1      -4.538   6.191  -3.921  0.00  0.00    +0.000 HD
ENDBRANCH  20  27
BRANCH  18  29
ATOM     29  C   UNL     1      -1.651  10.868  -3.393  0.00  0.00    +0.000 C 
BRANCH  29  30
ATOM     30  O   UNL     1      -0.716  11.465  -2.492  0.00  0.00    +0.000 OA
ATOM     31  H   UNL     1      -1.191  12.209  -2.072  0.00  0.00    +0.000 HD
ENDBRANCH  29  30
ENDBRANCH  18  29
ENDBRANCH   1  17
TORSDOF 12
ENDMDL
MODEL 2
REMARK VINA RESULT:    -6.740      2.008      4.767
REMARK INTER + INTRA:         -10.669
REMARK INTER:                  -9.880
REMARK INTRA:                  -0.789
REMARK UNBOUND:                -0.777
REMARK  Name = 
REMARK  12 active torsions:
REMARK  status: ('A' for Active; 'I' for Inactive)
REMARK    1  A    between atoms: C_1  and  C_2
REMARK    2  A    between atoms: C_1  and  O_23
REMARK    3  A    between atoms: C_3  and  O_22
REMARK    4  A    between atoms: C_4  and  O_21
REMARK    5  A    between atoms: C_5  and  O_20
REMARK    6  A    between atoms: C_6  and  O_8
REMARK    7  A    between atoms: O_8  and  C_9
REMARK    8  A    between atoms: C_10  and  C_18
REMARK    9  A    between atoms: C_12  and  O_17
REMARK   10  A    between atoms: C_13  and  O_16
REMARK   11  A    between atoms: C_14  and  O_15
REMARK   12  A    between atoms: C_18  and  O_19
REMARK                            x       y       z     vdW  Elec       q    Type
REMARK                         _______ _______ _______ _____ _____    ______ ____
ROOT
ATOM      1  O   UNL     1      -0.429   7.673  -3.068  0.00  0.00    +0.000 OA
ENDROOT
BRANCH   1   6
ATOM      2  C   UNL     1       0.698  11.097  -3.269  0.00  0.00    +0.000 C 
ATOM      3  C   UNL     1      -0.488  11.883  -2.705  0.00  0.00    +0.000 C 
ATOM      4  C   UNL     1      -1.810  11.188  -3.070  0.00  0.00    +0.000 C 
ATOM      5  C   UNL     1      -1.786   9.689  -2.705  0.00  0.00    +0.000 C 
ATOM      6  C   UNL     1      -0.542   9.060  -3.380  0.00  0.00    +0.000 C 
ATOM      7  O   UNL     1       0.611   9.731  -2.893  0.00  0.00    +0.000 OA
BRANCH   5   8
ATOM      8  O   UNL     1      -3.019   9.073  -3.090  0.00  0.00    +0.000 OA
ATOM      9  H   UNL     1      -3.646   9.758  -3.375  0.00  0.00    +0.000 HD
ENDBRANCH   5   8
BRANCH   4  10
ATOM     10  O   UNL     1      -2.892  11.889  -2.447  0.00  0.00    +0.000 OA
ATOM     11  H   UNL     1      -3.544  11.233  -2.136  0.00  0.00    +0.000 HD
ENDBRANCH   4  10
BRANCH   3  12
ATOM     12  O   UNL     1      -0.440  13.222  -3.218  0.00  0.00    +0.000 OA
ATOM     13  H   UNL     1       0.404  13.620  -2.929  0.00  0.00    +0.000 HD
ENDBRANCH   3  12
BRANCH   2  14
ATOM     14  C   UNL     1       2.039  11.646  -2.755  0.00  0.00    +0.000 C 
BRANCH  14  15
ATOM     15  O   UNL     1       2.542  12.688  -3.581  0.00  0.00    +0.000 OA
ATOM     16  H   UNL     1       3.520  12.659  -3.514  0.00  0.00    +0.000 HD
ENDBRANCH  14  15
ENDBRANCH   2  14
ENDBRANCH   1   6
BRANCH   1  17
ATOM     17  C   UNL     1      -0.494   6.750  -4.177  0.00  0.00    +0.000 C 
ATOM     18  C   UNL     1       0.161   7.274  -5.483  0.00  0.00    +0.000 C 
ATOM     19  O   UNL     1       0.114   6.279  -6.526  0.00  0.00    +0.000 OA
ATOM     20  C   UNL     1      -1.232   5.981  -6.878  0.00  0.00    +0.000 C 
ATOM     21  C   UNL     1      -1.940   5.300  -5.695  0.00  0.00    +0.000 C 
ATOM     22  C   UNL     1      -1.916   6.226  -4.472  0.00  0.00    +0.000 C 
BRANCH  22  23
ATOM     23  O   UNL     1      -2.440   5.522  -3.337  0.00  0.00    +0.000 OA
ATOM     24  H   UNL     1      -2.004   4.647  -3.323  0.00  0.00    +0.000 HD
ENDBRANCH  22  23
BRANCH  21  25
ATOM     25  O   UNL     1      -3.306   4.953  -5.974  0.00  0.00    +0.000 OA
ATOM     26  H   UNL     1      -3.825   5.042  -5.154  0.00  0.00    +0.000 HD
ENDBRANCH  21  25
BRANCH  20  27
ATOM     27  O   UNL     1      -1.242   5.161  -8.035  0.00  0.00    +0.000 OA
ATOM     28  H   UNL     1      -0.335   4.830  -8.152  0.00  0.00    +0.000 HD
ENDBRANCH  20  27
BRANCH  18  29
ATOM     29  C   UNL     1       1.623   7.673  -5.260  0.00  0.00    +0.000 C 
BRANCH  29  30
ATOM     30  O   UNL     1       2.110   7.078  -4.055  0.00  0.00    +0.000 OA
ATOM     31  H   UNL     1       2.080   7.784  -3.380  0.00  0.00    +0.000 HD
ENDBRANCH  29  30
ENDBRANCH  18  29
ENDBRANCH   1  17
TORSDOF 12
ENDMDL
MODEL 3
REMARK VINA RESULT:    -6.472      1.277      6.277
REMARK INTER + INTRA:         -10.275
REMARK INTER:                  -8.651
REMARK INTRA:                  -1.624
REMARK UNBOUND:                -0.777
REMARK  Name = 
REMARK  12 active torsions:
REMARK  status: ('A' for Active; 'I' for Inactive)
REMARK    1  A    between atoms: C_1  and  C_2
REMARK    2  A    between atoms: C_1  and  O_23
REMARK    3  A    between atoms: C_3  and  O_22
REMARK    4  A    between atoms: C_4  and  O_21
REMARK    5  A    between atoms: C_5  and  O_20
REMARK    6  A    between atoms: C_6  and  O_8
REMARK    7  A    between atoms: O_8  and  C_9
REMARK    8  A    between atoms: C_10  and  C_18
REMARK    9  A    between atoms: C_12  and  O_17
REMARK   10  A    between atoms: C_13  and  O_16
REMARK   11  A    between atoms: C_14  and  O_15
REMARK   12  A    between atoms: C_18  and  O_19
REMARK                            x       y       z     vdW  Elec       q    Type
REMARK                         _______ _______ _______ _____ _____    ______ ____
ROOT
ATOM      1  O   UNL     1       1.367   8.547  -2.966  0.00  0.00    +0.000 OA
ENDROOT
BRANCH   1   6
ATOM      2  C   UNL     1      -2.023   9.362  -3.905  0.00  0.00    +0.000 C 
ATOM      3  C   UNL     1      -2.793   8.086  -3.555  0.00  0.00    +0.000 C 
ATOM      4  C   UNL     1      -1.907   6.851  -3.783  0.00  0.00    +0.000 C 
ATOM      5  C   UNL     1      -0.535   6.997  -3.091  0.00  0.00    +0.000 C 
ATOM      6  C   UNL     1       0.100   8.320  -3.583  0.00  0.00    +0.000 C 
ATOM      7  O   UNL     1      -0.771   9.386  -3.235  0.00  0.00    +0.000 OA
BRANCH   5   8
ATOM      8  O   UNL     1       0.269   5.843  -3.354  0.00  0.00    +0.000 OA
ATOM      9  H   UNL     1       0.994   6.085  -3.953  0.00  0.00    +0.000 HD
ENDBRANCH   5   8
BRANCH   4  10
ATOM     10  O   UNL     1      -2.618   5.683  -3.354  0.00  0.00    +0.000 OA
ATOM     11  H   UNL     1      -3.333   5.962  -2.753  0.00  0.00    +0.000 HD
ENDBRANCH   4  10
BRANCH   3  12
ATOM     12  O   UNL     1      -3.983   8.032  -4.353  0.00  0.00    +0.000 OA
ATOM     13  H   UNL     1      -4.704   8.446  -3.839  0.00  0.00    +0.000 HD
ENDBRANCH   3  12
BRANCH   2  14
ATOM     14  C   UNL     1      -2.802  10.624  -3.500  0.00  0.00    +0.000 C 
BRANCH  14  15
ATOM     15  O   UNL     1      -1.950  11.635  -2.979  0.00  0.00    +0.000 OA
ATOM     16  H   UNL     1      -2.529  12.331  -2.601  0.00  0.00    +0.000 HD
ENDBRANCH  14  15
ENDBRANCH   2  14
ENDBRANCH   1   6
BRANCH   1  17
ATOM     17  C   UNL     1       2.450   8.947  -3.834  0.00  0.00    +0.000 C 
ATOM     18  C   UNL     1       2.399  10.433  -4.275  0.00  0.00    +0.000 C 
ATOM     19  O   UNL     1       3.541  10.777  -5.087  0.00  0.00    +0.000 OA
ATOM     20  C   UNL     1       3.542  10.030  -6.297  0.00  0.00    +0.000 C 
ATOM     21  C   UNL     1       3.752   8.538  -5.987  0.00  0.00    +0.000 C 
ATOM     22  C   UNL     1       2.632   8.036  -5.067  0.00  0.00    +0.000 C 
BRANCH  22  23
ATOM     23  O   UNL     1       2.922   6.690  -4.662  0.00  0.00    +0.000 OA
ATOM     24  H   UNL     1       3.147   6.725  -3.711  0.00  0.00    +0.000 HD
ENDBRANCH  22  23
BRANCH  21  25
ATOM     25  O   UNL     1       3.779   7.712  -7.162  0.00  0.00    +0.000 OA
ATOM     26  H   UNL     1       3.226   8.127  -7.849  0.00  0.00    +0.000 HD
ENDBRANCH  21  25
BRANCH  20  27
ATOM     27  O   UNL     1       4.552  10.532  -7.156  0.00  0.00    +0.000 OA
ATOM     28  H   UNL     1       4.109  11.106  -7.805  0.00  0.00    +0.000 HD
ENDBRANCH  20  27
BRANCH  18  29
ATOM     29  C   UNL     1       2.360  11.378  -3.069  0.00  0.00    +0.000 C 
BRANCH  29  30
ATOM     30  O   UNL     1       1.007  11.600  -2.670  0.00  0.00    +0.000 OA
ATOM     31  H   UNL     1       1.026  11.664  -1.695  0.00  0.00    +0.000 HD
ENDBRANCH  29  30
ENDBRANCH  18  29
ENDBRANCH   1  17
TORSDOF 12
ENDMDL
MODEL 4
REMARK VINA RESULT:    -6.410      1.862      6.778
REMARK INTER + INTRA:         -10.184
REMARK INTER:                  -8.796
REMARK INTRA:                  -1.388
REMARK UNBOUND:                -0.777
REMARK  Name = 
REMARK  12 active torsions:
REMARK  status: ('A' for Active; 'I' for Inactive)
REMARK    1  A    between atoms: C_1  and  C_2
REMARK    2  A    between atoms: C_1  and  O_23
REMARK    3  A    between atoms: C_3  and  O_22
REMARK    4  A    between atoms: C_4  and  O_21
REMARK    5  A    between atoms: C_5  and  O_20
REMARK    6  A    between atoms: C_6  and  O_8
REMARK    7  A    between atoms: O_8  and  C_9
REMARK    8  A    between atoms: C_10  and  C_18
REMARK    9  A    between atoms: C_12  and  O_17
REMARK   10  A    between atoms: C_13  and  O_16
REMARK   11  A    between atoms: C_14  and  O_15
REMARK   12  A    between atoms: C_18  and  O_19
REMARK                            x       y       z     vdW  Elec       q    Type
REMARK                         _______ _______ _______ _____ _____    ______ ____
ROOT
ATOM      1  O   UNL     1       1.506   7.386  -5.084  0.00  0.00    +0.000 OA
ENDROOT
BRANCH   1   6
ATOM      2  C   UNL     1      -2.027   7.359  -4.344  0.00  0.00    +0.000 C 
ATOM      3  C   UNL     1      -2.534   6.147  -5.130  0.00  0.00    +0.000 C 
ATOM      4  C   UNL     1      -1.731   5.982  -6.430  0.00  0.00    +0.000 C 
ATOM      5  C   UNL     1      -0.210   6.002  -6.168  0.00  0.00    +0.000 C 
ATOM      6  C   UNL     1       0.116   7.302  -5.392  0.00  0.00    +0.000 C 
ATOM      7  O   UNL     1      -0.619   7.289  -4.178  0.00  0.00    +0.000 OA
BRANCH   5   8
ATOM      8  O   UNL     1       0.499   5.880  -7.405  0.00  0.00    +0.000 OA
ATOM      9  H   UNL     1       1.454   5.939  -7.236  0.00  0.00    +0.000 HD
ENDBRANCH   5   8
BRANCH   4  10
ATOM     10  O   UNL     1      -2.159   4.788  -7.094  0.00  0.00    +0.000 OA
ATOM     11  H   UNL     1      -2.444   4.146  -6.417  0.00  0.00    +0.000 HD
ENDBRANCH   4  10
BRANCH   3  12
ATOM     12  O   UNL     1      -3.933   6.321  -5.396  0.00  0.00    +0.000 OA
ATOM     13  H   UNL     1      -4.270   5.485  -5.772  0.00  0.00    +0.000 HD
ENDBRANCH   3  12
BRANCH   2  14
ATOM     14  C   UNL     1      -2.667   7.436  -2.948  0.00  0.00    +0.000 C 
BRANCH  14  15
ATOM     15  O   UNL     1      -3.593   6.382  -2.723  0.00  0.00    +0.000 OA
ATOM     16  H   UNL     1      -4.454   6.675  -3.090  0.00  0.00    +0.000 HD
ENDBRANCH  14  15
ENDBRANCH   2  14
ENDBRANCH   1   6
BRANCH   1  17
ATOM     17  C   UNL     1       2.012   8.686  -4.711  0.00  0.00    +0.000 C 
ATOM     18  C   UNL     1       3.223   9.165  -5.555  0.00  0.00    +0.000 C 
ATOM     19  O   UNL     1       3.636  10.493  -5.169  0.00  0.00    +0.000 OA
ATOM     20  C   UNL     1       4.092  10.507  -3.822  0.00  0.00    +0.000 C 
ATOM     21  C   UNL     1       2.922  10.201  -2.873  0.00  0.00    +0.000 C 
ATOM     22  C   UNL     1       2.329   8.826  -3.206  0.00  0.00    +0.000 C 
BRANCH  22  23
ATOM     23  O   UNL     1       1.146   8.619  -2.420  0.00  0.00    +0.000 OA
ATOM     24  H   UNL     1       0.392   8.617  -3.043  0.00  0.00    +0.000 HD
ENDBRANCH  22  23
BRANCH  21  25
ATOM     25  O   UNL     1       3.298  10.210  -1.486  0.00  0.00    +0.000 OA
ATOM     26  H   UNL     1       3.786   9.389  -1.290  0.00  0.00    +0.000 HD
ENDBRANCH  21  25
BRANCH  20  27
ATOM     27  O   UNL     1       4.677  11.768  -3.540  0.00  0.00    +0.000 OA
ATOM     28  H   UNL     1       4.383  12.020  -2.648  0.00  0.00    +0.000 HD
ENDBRANCH  20  27
BRANCH  18  29
ATOM     29  C   UNL     1       2.899   9.175  -7.052  0.00  0.00    +0.000 C 
BRANCH  29  30
ATOM     30  O   UNL     1       2.769   7.835  -7.529  0.00  0.00    +0.000 OA
ATOM     31  H   UNL     1       2.551   7.911  -8.479  0.00  0.00    +0.000 HD
ENDBRANCH  29  30
ENDBRANCH  18  29
ENDBRANCH   1  17
TORSDOF 12
ENDMDL
MODEL 5
REMARK VINA RESULT:    -6.351      1.740      6.116
REMARK INTER + INTRA:         -10.098
REMARK INTER:                  -9.256
REMARK INTRA:                  -0.842
REMARK UNBOUND:                -0.777
REMARK  Name = 
REMARK  12 active torsions:
REMARK  status: ('A' for Active; 'I' for Inactive)
REMARK    1  A    between atoms: C_1  and  C_2
REMARK    2  A    between atoms: C_1  and  O_23
REMARK    3  A    between atoms: C_3  and  O_22
REMARK    4  A    between atoms: C_4  and  O_21
REMARK    5  A    between atoms: C_5  and  O_20
REMARK    6  A    between atoms: C_6  and  O_8
REMARK    7  A    between atoms: O_8  and  C_9
REMARK    8  A    between atoms: C_10  and  C_18
REMARK    9  A    between atoms: C_12  and  O_17
REMARK   10  A    between atoms: C_13  and  O_16
REMARK   11  A    between atoms: C_14  and  O_15
REMARK   12  A    between atoms: C_18  and  O_19
REMARK                            x       y       z     vdW  Elec       q    Type
REMARK                         _______ _______ _______ _____ _____    ______ ____
ROOT
ATOM      1  O   UNL     1       0.683   7.490  -2.961  0.00  0.00    +0.000 OA
ENDROOT
BRANCH   1   6
ATOM      2  C   UNL     1      -1.313   5.846  -5.480  0.00  0.00    +0.000 C 
ATOM      3  C   UNL     1      -2.658   6.572  -5.382  0.00  0.00    +0.000 C 
ATOM      4  C   UNL     1      -2.933   6.987  -3.927  0.00  0.00    +0.000 C 
ATOM      5  C   UNL     1      -1.736   7.742  -3.313  0.00  0.00    +0.000 C 
ATOM      6  C   UNL     1      -0.481   6.850  -3.481  0.00  0.00    +0.000 C 
ATOM      7  O   UNL     1      -0.289   6.615  -4.868  0.00  0.00    +0.000 OA
BRANCH   5   8
ATOM      8  O   UNL     1      -2.019   8.080  -1.951  0.00  0.00    +0.000 OA
ATOM      9  H   UNL     1      -2.215   9.029  -1.889  0.00  0.00    +0.000 HD
ENDBRANCH   5   8
BRANCH   4  10
ATOM     10  O   UNL     1      -4.145   7.748  -3.882  0.00  0.00    +0.000 OA
ATOM     11  H   UNL     1      -3.961   8.593  -3.430  0.00  0.00    +0.000 HD
ENDBRANCH   4  10
BRANCH   3  12
ATOM     12  O   UNL     1      -3.686   5.709  -5.884  0.00  0.00    +0.000 OA
ATOM     13  H   UNL     1      -4.390   5.661  -5.208  0.00  0.00    +0.000 HD
ENDBRANCH   3  12
BRANCH   2  14
ATOM     14  C   UNL     1      -0.910   5.597  -6.943  0.00  0.00    +0.000 C 
BRANCH  14  15
ATOM     15  O   UNL     1       0.457   5.228  -7.066  0.00  0.00    +0.000 OA
ATOM     16  H   UNL     1       0.989   6.023  -6.850  0.00  0.00    +0.000 HD
ENDBRANCH  14  15
ENDBRANCH   2  14
ENDBRANCH   1   6
BRANCH   1  17
ATOM     17  C   UNL     1       1.114   8.697  -3.625  0.00  0.00    +0.000 C 
ATOM     18  C   UNL     1       2.505   8.591  -4.304  0.00  0.00    +0.000 C 
ATOM     19  O   UNL     1       2.843   9.810  -4.998  0.00  0.00    +0.000 OA
ATOM     20  C   UNL     1       2.956  10.895  -4.084  0.00  0.00    +0.000 C 
ATOM     21  C   UNL     1       1.582  11.198  -3.464  0.00  0.00    +0.000 C 
ATOM     22  C   UNL     1       1.056   9.957  -2.733  0.00  0.00    +0.000 C 
BRANCH  22  23
ATOM     23  O   UNL     1      -0.288  10.201  -2.293  0.00  0.00    +0.000 OA
ATOM     24  H   UNL     1      -0.641   9.344  -1.979  0.00  0.00    +0.000 HD
ENDBRANCH  22  23
BRANCH  21  25
ATOM     25  O   UNL     1       1.607  12.294  -2.536  0.00  0.00    +0.000 OA
ATOM     26  H   UNL     1       0.988  12.102  -1.808  0.00  0.00    +0.000 HD
ENDBRANCH  21  25
BRANCH  20  27
ATOM     27  O   UNL     1       3.484  12.023  -4.762  0.00  0.00    +0.000 OA
ATOM     28  H   UNL     1       2.935  12.157  -5.554  0.00  0.00    +0.000 HD
ENDBRANCH  20  27
BRANCH  18  29
ATOM     29  C   UNL     1       2.557   7.434  -5.306  0.00  0.00    +0.000 C 
BRANCH  29  30
ATOM     30  O   UNL     1       1.829   7.780  -6.486  0.00  0.00    +0.000 OA
ATOM     31  H   UNL     1       1.148   7.088  -6.590  0.00  0.00    +0.000 HD
ENDBRANCH  29  30
ENDBRANCH  18  29
ENDBRANCH   1  17
TORSDOF 12
ENDMDL
MODEL 6
REMARK VINA RESULT:    -6.318      1.809      3.001
REMARK INTER + INTRA:         -10.050
REMARK INTER:                  -8.953
REMARK INTRA:                  -1.096
REMARK UNBOUND:                -0.777
REMARK  Name = 
REMARK  12 active torsions:
REMARK  status: ('A' for Active; 'I' for Inactive)
REMARK    1  A    between atoms: C_1  and  C_2
REMARK    2  A    between atoms: C_1  and  O_23
REMARK    3  A    between atoms: C_3  and  O_22
REMARK    4  A    between atoms: C_4  and  O_21
REMARK    5  A    between atoms: C_5  and  O_20
REMARK    6  A    between atoms: C_6  and  O_8
REMARK    7  A    between atoms: O_8  and  C_9
REMARK    8  A    between atoms: C_10  and  C_18
REMARK    9  A    between atoms: C_12  and  O_17
REMARK   10  A    between atoms: C_13  and  O_16
REMARK   11  A    between atoms: C_14  and  O_15
REMARK   12  A    between atoms: C_18  and  O_19
REMARK                            x       y       z     vdW  Elec       q    Type
REMARK                         _______ _______ _______ _____ _____    ______ ____
ROOT
ATOM      1  O   UNL     1       0.116   7.978  -3.351  0.00  0.00    +0.000 OA
ENDROOT
BRANCH   1   6
ATOM      2  C   UNL     1       3.112   9.857  -4.076  0.00  0.00    +0.000 C 
ATOM      3  C   UNL     1       2.934  11.126  -3.237  0.00  0.00    +0.000 C 
ATOM      4  C   UNL     1       1.446  11.507  -3.158  0.00  0.00    +0.000 C 
ATOM      5  C   UNL     1       0.573  10.310  -2.728  0.00  0.00    +0.000 C 
ATOM      6  C   UNL     1       0.867   9.140  -3.698  0.00  0.00    +0.000 C 
ATOM      7  O   UNL     1       2.250   8.830  -3.611  0.00  0.00    +0.000 OA
BRANCH   5   8
ATOM      8  O   UNL     1      -0.805  10.697  -2.699  0.00  0.00    +0.000 OA
ATOM      9  H   UNL     1      -0.875  11.652  -2.863  0.00  0.00    +0.000 HD
ENDBRANCH   5   8
BRANCH   4  10
ATOM     10  O   UNL     1       1.301  12.635  -2.289  0.00  0.00    +0.000 OA
ATOM     11  H   UNL     1       2.082  12.677  -1.706  0.00  0.00    +0.000 HD
ENDBRANCH   4  10
BRANCH   3  12
ATOM     12  O   UNL     1       3.714  12.178  -3.821  0.00  0.00    +0.000 OA
ATOM     13  H   UNL     1       4.308  12.526  -3.127  0.00  0.00    +0.000 HD
ENDBRANCH   3  12
BRANCH   2  14
ATOM     14  C   UNL     1       4.555   9.332  -4.010  0.00  0.00    +0.000 C 
BRANCH  14  15
ATOM     15  O   UNL     1       5.301   9.947  -2.969  0.00  0.00    +0.000 OA
ATOM     16  H   UNL     1       4.863   9.709  -2.124  0.00  0.00    +0.000 HD
ENDBRANCH  14  15
ENDBRANCH   2  14
ENDBRANCH   1   6
BRANCH   1  17
ATOM     17  C   UNL     1      -0.809   7.480  -4.343  0.00  0.00    +0.000 C 
ATOM     18  C   UNL     1      -2.025   6.718  -3.756  0.00  0.00    +0.000 C 
ATOM     19  O   UNL     1      -2.935   6.304  -4.797  0.00  0.00    +0.000 OA
ATOM     20  C   UNL     1      -2.307   5.381  -5.677  0.00  0.00    +0.000 C 
ATOM     21  C   UNL     1      -1.172   6.081  -6.443  0.00  0.00    +0.000 C 
ATOM     22  C   UNL     1      -0.142   6.637  -5.452  0.00  0.00    +0.000 C 
BRANCH  22  23
ATOM     23  O   UNL     1       0.827   7.419  -6.166  0.00  0.00    +0.000 OA
ATOM     24  H   UNL     1       1.462   6.788  -6.560  0.00  0.00    +0.000 HD
ENDBRANCH  22  23
BRANCH  21  25
ATOM     25  O   UNL     1      -0.492   5.217  -7.368  0.00  0.00    +0.000 OA
ATOM     26  H   UNL     1      -1.151   4.644  -7.802  0.00  0.00    +0.000 HD
ENDBRANCH  21  25
BRANCH  20  27
ATOM     27  O   UNL     1      -3.277   4.841  -6.559  0.00  0.00    +0.000 OA
ATOM     28  H   UNL     1      -3.199   3.873  -6.504  0.00  0.00    +0.000 HD
ENDBRANCH  20  27
BRANCH  18  29
ATOM     29  C   UNL     1      -2.799   7.578  -2.751  0.00  0.00    +0.000 C 
BRANCH  29  30
ATOM     30  O   UNL     1      -2.845   8.931  -3.205  0.00  0.00    +0.000 OA
ATOM     31  H   UNL     1      -3.713   9.277  -2.919  0.00  0.00    +0.000 HD
ENDBRANCH  29  30
ENDBRANCH  18  29
ENDBRANCH   1  17
TORSDOF 12
ENDMDL
MODEL 7
REMARK VINA RESULT:    -6.158      1.715      2.742
REMARK INTER + INTRA:          -9.815
REMARK INTER:                  -8.249
REMARK INTRA:                  -1.566
REMARK UNBOUND:                -0.777
REMARK  Name = 
REMARK  12 active torsions:
REMARK  status: ('A' for Active; 'I' for Inactive)
REMARK    1  A    between atoms: C_1  and  C_2
REMARK    2  A    between atoms: C_1  and  O_23
REMARK    3  A    between atoms: C_3  and  O_22
REMARK    4  A    between atoms: C_4  and  O_21
REMARK    5  A    between atoms: C_5  and  O_20
REMARK    6  A    between atoms: C_6  and  O_8
REMARK    7  A    between atoms: O_8  and  C_9
REMARK    8  A    between atoms: C_10  and  C_18
REMARK    9  A    between atoms: C_12  and  O_17
REMARK   10  A    between atoms: C_13  and  O_16
REMARK   11  A    between atoms: C_14  and  O_15
REMARK   12  A    between atoms: C_18  and  O_19
REMARK                            x       y       z     vdW  Elec       q    Type
REMARK                         _______ _______ _______ _____ _____    ______ ____
ROOT
ATOM      1  O   UNL     1       1.305   7.523  -3.878  0.00  0.00    +0.000 OA
ENDROOT
BRANCH   1   6
ATOM      2  C   UNL     1       3.004   9.535  -6.348  0.00  0.00    +0.000 C 
ATOM      3  C   UNL     1       4.036  10.302  -5.516  0.00  0.00    +0.000 C 
ATOM      4  C   UNL     1       3.472  10.607  -4.118  0.00  0.00    +0.000 C 
ATOM      5  C   UNL     1       2.901   9.341  -3.445  0.00  0.00    +0.000 C 
ATOM      6  C   UNL     1       1.865   8.720  -4.415  0.00  0.00    +0.000 C 
ATOM      7  O   UNL     1       2.529   8.406  -5.630  0.00  0.00    +0.000 OA
BRANCH   5   8
ATOM      8  O   UNL     1       2.358   9.673  -2.163  0.00  0.00    +0.000 OA
ATOM      9  H   UNL     1       1.412   9.872  -2.256  0.00  0.00    +0.000 HD
ENDBRANCH   5   8
BRANCH   4  10
ATOM     10  O   UNL     1       4.492  11.235  -3.332  0.00  0.00    +0.000 OA
ATOM     11  H   UNL     1       4.201  12.141  -3.121  0.00  0.00    +0.000 HD
ENDBRANCH   4  10
BRANCH   3  12
ATOM     12  O   UNL     1       4.387  11.505  -6.213  0.00  0.00    +0.000 OA
ATOM     13  H   UNL     1       3.684  12.162  -6.044  0.00  0.00    +0.000 HD
ENDBRANCH   3  12
BRANCH   2  14
ATOM     14  C   UNL     1       3.601   9.037  -7.674  0.00  0.00    +0.000 C 
BRANCH  14  15
ATOM     15  O   UNL     1       2.895   7.919  -8.193  0.00  0.00    +0.000 OA
ATOM     16  H   UNL     1       2.138   8.273  -8.707  0.00  0.00    +0.000 HD
ENDBRANCH  14  15
ENDBRANCH   2  14
ENDBRANCH   1   6
BRANCH   1  17
ATOM     17  C   UNL     1      -0.133   7.474  -3.757  0.00  0.00    +0.000 C 
ATOM     18  C   UNL     1      -0.883   7.339  -5.109  0.00  0.00    +0.000 C 
ATOM     19  O   UNL     1      -2.308   7.235  -4.909  0.00  0.00    +0.000 OA
ATOM     20  C   UNL     1      -2.821   8.422  -4.316  0.00  0.00    +0.000 C 
ATOM     21  C   UNL     1      -2.264   8.574  -2.891  0.00  0.00    +0.000 C 
ATOM     22  C   UNL     1      -0.732   8.637  -2.936  0.00  0.00    +0.000 C 
BRANCH  22  23
ATOM     23  O   UNL     1      -0.219   8.624  -1.596  0.00  0.00    +0.000 OA
ATOM     24  H   UNL     1      -0.475   9.475  -1.188  0.00  0.00    +0.000 HD
ENDBRANCH  22  23
BRANCH  21  25
ATOM     25  O   UNL     1      -2.746   9.746  -2.215  0.00  0.00    +0.000 OA
ATOM     26  H   UNL     1      -3.704   9.828  -2.376  0.00  0.00    +0.000 HD
ENDBRANCH  21  25
BRANCH  20  27
ATOM     27  O   UNL     1      -4.238   8.371  -4.320  0.00  0.00    +0.000 OA
ATOM     28  H   UNL     1      -4.526   8.647  -5.207  0.00  0.00    +0.000 HD
ENDBRANCH  20  27
BRANCH  18  29
ATOM     29  C   UNL     1      -0.413   6.110  -5.894  0.00  0.00    +0.000 C 
BRANCH  29  30
ATOM     30  O   UNL     1       0.734   6.443  -6.678  0.00  0.00    +0.000 OA
ATOM     31  H   UNL     1       0.397   6.968  -7.430  0.00  0.00    +0.000 HD
ENDBRANCH  29  30
ENDBRANCH  18  29
ENDBRANCH   1  17
TORSDOF 12
ENDMDL
MODEL 8
REMARK VINA RESULT:    -6.135      1.447      2.950
REMARK INTER + INTRA:          -9.781
REMARK INTER:                  -9.005
REMARK INTRA:                  -0.777
REMARK UNBOUND:                -0.777
REMARK  Name = 
REMARK  12 active torsions:
REMARK  status: ('A' for Active; 'I' for Inactive)
REMARK    1  A    between atoms: C_1  and  C_2
REMARK    2  A    between atoms: C_1  and  O_23
REMARK    3  A    between atoms: C_3  and  O_22
REMARK    4  A    between atoms: C_4  and  O_21
REMARK    5  A    between atoms: C_5  and  O_20
REMARK    6  A    between atoms: C_6  and  O_8
REMARK    7  A    between atoms: O_8  and  C_9
REMARK    8  A    between atoms: C_10  and  C_18
REMARK    9  A    between atoms: C_12  and  O_17
REMARK   10  A    between atoms: C_13  and  O_16
REMARK   11  A    between atoms: C_14  and  O_15
REMARK   12  A    between atoms: C_18  and  O_19
REMARK                            x       y       z     vdW  Elec       q    Type
REMARK                         _______ _______ _______ _____ _____    ______ ____
ROOT
ATOM      1  O   UNL     1       0.792   7.042  -3.713  0.00  0.00    +0.000 OA
ENDROOT
BRANCH   1   6
ATOM      2  C   UNL     1       3.542   9.328  -4.204  0.00  0.00    +0.000 C 
ATOM      3  C   UNL     1       3.498   9.601  -5.710  0.00  0.00    +0.000 C 
ATOM      4  C   UNL     1       3.025   8.348  -6.464  0.00  0.00    +0.000 C 
ATOM      5  C   UNL     1       1.722   7.779  -5.864  0.00  0.00    +0.000 C 
ATOM      6  C   UNL     1       1.964   7.544  -4.353  0.00  0.00    +0.000 C 
ATOM      7  O   UNL     1       2.306   8.789  -3.761  0.00  0.00    +0.000 OA
BRANCH   5   8
ATOM      8  O   UNL     1       1.335   6.597  -6.572  0.00  0.00    +0.000 OA
ATOM      9  H   UNL     1       2.026   6.365  -7.214  0.00  0.00    +0.000 HD
ENDBRANCH   5   8
BRANCH   4  10
ATOM     10  O   UNL     1       2.899   8.662  -7.856  0.00  0.00    +0.000 OA
ATOM     11  H   UNL     1       2.008   9.030  -8.008  0.00  0.00    +0.000 HD
ENDBRANCH   4  10
BRANCH   3  12
ATOM     12  O   UNL     1       4.802  10.013  -6.143  0.00  0.00    +0.000 OA
ATOM     13  H   UNL     1       5.417   9.888  -5.393  0.00  0.00    +0.000 HD
ENDBRANCH   3  12
BRANCH   2  14
ATOM     14  C   UNL     1       3.814  10.612  -3.403  0.00  0.00    +0.000 C 
BRANCH  14  15
ATOM     15  O   UNL     1       3.173  10.598  -2.135  0.00  0.00    +0.000 OA
ATOM     16  H   UNL     1       2.603   9.800  -2.111  0.00  0.00    +0.000 HD
ENDBRANCH  14  15
ENDBRANCH   2  14
ENDBRANCH   1   6
BRANCH   1  17
ATOM     17  C   UNL     1      -0.477   7.515  -4.214  0.00  0.00    +0.000 C 
ATOM     18  C   UNL     1      -1.167   8.570  -3.309  0.00  0.00    +0.000 C 
ATOM     19  O   UNL     1      -2.395   9.042  -3.900  0.00  0.00    +0.000 OA
ATOM     20  C   UNL     1      -3.337   7.982  -4.019  0.00  0.00    +0.000 C 
ATOM     21  C   UNL     1      -2.824   6.942  -5.029  0.00  0.00    +0.000 C 
ATOM     22  C   UNL     1      -1.472   6.387  -4.562  0.00  0.00    +0.000 C 
BRANCH  22  23
ATOM     23  O   UNL     1      -0.932   5.536  -5.584  0.00  0.00    +0.000 OA
ATOM     24  H   UNL     1      -1.222   5.908  -6.441  0.00  0.00    +0.000 HD
ENDBRANCH  22  23
BRANCH  21  25
ATOM     25  O   UNL     1      -3.726   5.840  -5.218  0.00  0.00    +0.000 OA
ATOM     26  H   UNL     1      -4.023   5.836  -6.146  0.00  0.00    +0.000 HD
ENDBRANCH  21  25
BRANCH  20  27
ATOM     27  O   UNL     1      -4.592   8.513  -4.408  0.00  0.00    +0.000 OA
ATOM     28  H   UNL     1      -4.647   9.409  -4.033  0.00  0.00    +0.000 HD
ENDBRANCH  20  27
BRANCH  18  29
ATOM     29  C   UNL     1      -0.257   9.777  -3.056  0.00  0.00    +0.000 C 
BRANCH  29  30
ATOM     30  O   UNL     1       0.525   9.557  -1.881  0.00  0.00    +0.000 OA
ATOM     31  H   UNL     1       0.126   8.782  -1.438  0.00  0.00    +0.000 HD
ENDBRANCH  29  30
ENDBRANCH  18  29
ENDBRANCH   1  17
TORSDOF 12
ENDMDL
MODEL 9
REMARK VINA RESULT:    -4.930     13.949     16.661
REMARK INTER + INTRA:          -8.012
REMARK INTER:                  -7.041
REMARK INTRA:                  -0.971
REMARK UNBOUND:                -0.777
REMARK  Name = 
REMARK  12 active torsions:
REMARK  status: ('A' for Active; 'I' for Inactive)
REMARK    1  A    between atoms: C_1  and  C_2
REMARK    2  A    between atoms: C_1  and  O_23
REMARK    3  A    between atoms: C_3  and  O_22
REMARK    4  A    between atoms: C_4  and  O_21
REMARK    5  A    between atoms: C_5  and  O_20
REMARK    6  A    between atoms: C_6  and  O_8
REMARK    7  A    between atoms: O_8  and  C_9
REMARK    8  A    between atoms: C_10  and  C_18
REMARK    9  A    between atoms: C_12  and  O_17
REMARK   10  A    between atoms: C_13  and  O_16
REMARK   11  A    between atoms: C_14  and  O_15
REMARK   12  A    between atoms: C_18  and  O_19
REMARK                            x       y       z     vdW  Elec       q    Type
REMARK                         _______ _______ _______ _____ _____    ______ ____
ROOT
ATOM      1  O   UNL     1      -5.756  -4.246 -13.118  0.00  0.00    +0.000 OA
ENDROOT
BRANCH   1   6
ATOM      2  C   UNL     1      -3.202  -1.734 -12.668  0.00  0.00    +0.000 C 
ATOM      3  C   UNL     1      -2.106  -2.489 -11.911  0.00  0.00    +0.000 C 
ATOM      4  C   UNL     1      -2.732  -3.533 -10.971  0.00  0.00    +0.000 C 
ATOM      5  C   UNL     1      -3.751  -4.427 -11.709  0.00  0.00    +0.000 C 
ATOM      6  C   UNL     1      -4.787  -3.497 -12.387  0.00  0.00    +0.000 C 
ATOM      7  O   UNL     1      -4.094  -2.647 -13.289  0.00  0.00    +0.000 OA
BRANCH   5   8
ATOM      8  O   UNL     1      -4.332  -5.361 -10.794  0.00  0.00    +0.000 OA
ATOM      9  H   UNL     1      -4.064  -5.134  -9.888  0.00  0.00    +0.000 HD
ENDBRANCH   5   8
BRANCH   4  10
ATOM     10  O   UNL     1      -1.684  -4.289 -10.352  0.00  0.00    +0.000 OA
ATOM     11  H   UNL     1      -1.331  -3.771  -9.606  0.00  0.00    +0.000 HD
ENDBRANCH   4  10
BRANCH   3  12
ATOM     12  O   UNL     1      -1.310  -1.542 -11.186  0.00  0.00    +0.000 OA
ATOM     13  H   UNL     1      -0.469  -1.980 -10.950  0.00  0.00    +0.000 HD
ENDBRANCH   3  12
BRANCH   2  14
ATOM     14  C   UNL     1      -2.614  -0.827 -13.760  0.00  0.00    +0.000 C 
BRANCH  14  15
ATOM     15  O   UNL     1      -1.274  -1.175 -14.082  0.00  0.00    +0.000 OA
ATOM     16  H   UNL     1      -0.969  -1.803 -13.393  0.00  0.00    +0.000 HD
ENDBRANCH  14  15
ENDBRANCH   2  14
ENDBRANCH   1   6
BRANCH   1  17
ATOM     17  C   UNL     1      -7.120  -4.180 -12.648  0.00  0.00    +0.000 C 
ATOM     18  C   UNL     1      -8.014  -5.357 -13.119  0.00  0.00    +0.000 C 
ATOM     19  O   UNL     1      -9.342  -5.259 -12.563  0.00  0.00    +0.000 OA
ATOM     20  C   UNL     1      -9.997  -4.085 -13.029  0.00  0.00    +0.000 C 
ATOM     21  C   UNL     1      -9.281  -2.839 -12.482  0.00  0.00    +0.000 C 
ATOM     22  C   UNL     1      -7.818  -2.835 -12.943  0.00  0.00    +0.000 C 
BRANCH  22  23
ATOM     23  O   UNL     1      -7.124  -1.755 -12.303  0.00  0.00    +0.000 OA
ATOM     24  H   UNL     1      -7.150  -0.998 -12.922  0.00  0.00    +0.000 HD
ENDBRANCH  22  23
BRANCH  21  25
ATOM     25  O   UNL     1      -9.891  -1.606 -12.896  0.00  0.00    +0.000 OA
ATOM     26  H   UNL     1     -10.718  -1.810 -13.369  0.00  0.00    +0.000 HD
ENDBRANCH  21  25
BRANCH  20  27
ATOM     27  O   UNL     1     -11.358  -4.121 -12.634  0.00  0.00    +0.000 OA
ATOM     28  H   UNL     1     -11.663  -5.036 -12.761  0.00  0.00    +0.000 HD
ENDBRANCH  20  27
BRANCH  18  29
ATOM     29  C   UNL     1      -7.421  -6.712 -12.718  0.00  0.00    +0.000 C 
BRANCH  29  30
ATOM     30  O   UNL     1      -6.749  -6.595 -11.462  0.00  0.00    +0.000 OA
ATOM     31  H   UNL     1      -7.081  -5.768 -11.060  0.00  0.00    +0.000 HD
ENDBRANCH  29  30
ENDBRANCH  18  29
ENDBRANCH   1  17
TORSDOF 12
ENDMDL
