REMARK  Name = 
REMARK  12 active torsions:
REMARK  status: ('A' for Active; 'I' for Inactive)
REMARK    1  A    between atoms: C_1  and  C_2
REMARK    2  A    between atoms: C_1  and  O_23
REMARK    3  A    between atoms: C_3  and  O_22
REMARK    4  A    between atoms: C_4  and  O_21
REMARK    5  A    between atoms: C_5  and  O_20
REMARK    6  A    between atoms: C_6  and  O_8
REMARK    7  A    between atoms: O_8  and  C_9
REMARK    8  A    between atoms: C_10  and  C_18
REMARK    9  A    between atoms: C_12  and  O_17
REMARK   10  A    between atoms: C_13  and  O_16
REMARK   11  A    between atoms: C_14  and  O_15
REMARK   12  A    between atoms: C_18  and  O_19
REMARK                            x       y       z     vdW  Elec       q    Type
REMARK                         _______ _______ _______ _____ _____    ______ ____
ROOT
ATOM      1  O   UNL     1       2.156   1.994  -3.666  0.00  0.00    +0.000 OA
ENDROOT
BRANCH   1   6
ATOM      2  C   UNL     1       2.817   1.128  -0.224  0.00  0.00    +0.000 C 
ATOM      3  C   UNL     1       1.423   0.812   0.325  0.00  0.00    +0.000 C 
ATOM      4  C   UNL     1       0.370   1.705  -0.351  0.00  0.00    +0.000 C 
ATOM      5  C   UNL     1       0.491   1.666  -1.889  0.00  0.00    +0.000 C 
ATOM      6  C   UNL     1       1.950   2.034  -2.255  0.00  0.00    +0.000 C 
ATOM      7  O   UNL     1       2.812   1.086  -1.643  0.00  0.00    +0.000 OA
BRANCH   5   8
ATOM      8  O   UNL     1      -0.483   2.534  -2.477  0.00  0.00    +0.000 OA
ATOM      9  H   UNL     1      -0.356   3.436  -2.140  0.00  0.00    +0.000 HD
ENDBRANCH   5   8
BRANCH   4  10
ATOM     10  O   UNL     1      -0.931   1.320   0.108  0.00  0.00    +0.000 OA
ATOM     11  H   UNL     1      -1.272   0.624  -0.484  0.00  0.00    +0.000 HD
ENDBRANCH   4  10
BRANCH   3  12
ATOM     12  O   UNL     1       1.434   0.999   1.747  0.00  0.00    +0.000 OA
ATOM     13  H   UNL     1       0.685   1.584   1.975  0.00  0.00    +0.000 HD
ENDBRANCH   3  12
BRANCH   2  14
ATOM     14  C   UNL     1       3.865   0.121   0.277  0.00  0.00    +0.000 C 
BRANCH  14  15
ATOM     15  O   UNL     1       4.056   0.202   1.683  0.00  0.00    +0.000 OA
ATOM     16  H   UNL     1       3.165   0.213   2.093  0.00  0.00    +0.000 HD
ENDBRANCH  14  15
ENDBRANCH   2  14
ENDBRANCH   1   6
BRANCH   1  17
ATOM     17  C   UNL     1       3.471   2.354  -4.142  0.00  0.00    +0.000 C 
ATOM     18  C   UNL     1       4.594   1.370  -3.720  0.00  0.00    +0.000 C 
ATOM     19  O   UNL     1       5.866   1.757  -4.280  0.00  0.00    +0.000 OA
ATOM     20  C   UNL     1       6.273   3.024  -3.777  0.00  0.00    +0.000 C 
ATOM     21  C   UNL     1       5.310   4.115  -4.274  0.00  0.00    +0.000 C 
ATOM     22  C   UNL     1       3.884   3.803  -3.803  0.00  0.00    +0.000 C 
BRANCH  22  23
ATOM     23  O   UNL     1       2.974   4.739  -4.399  0.00  0.00    +0.000 OA
ATOM     24  H   UNL     1       3.456   5.586  -4.481  0.00  0.00    +0.000 HD
ENDBRANCH  22  23
BRANCH  21  25
ATOM     25  O   UNL     1       5.660   5.432  -3.819  0.00  0.00    +0.000 OA
ATOM     26  H   UNL     1       5.981   5.370  -2.901  0.00  0.00    +0.000 HD
ENDBRANCH  21  25
BRANCH  20  27
ATOM     27  O   UNL     1       7.607   3.281  -4.182  0.00  0.00    +0.000 OA
ATOM     28  H   UNL     1       7.568   3.570  -5.110  0.00  0.00    +0.000 HD
ENDBRANCH  20  27
BRANCH  18  29
ATOM     29  C   UNL     1       4.285  -0.063  -4.166  0.00  0.00    +0.000 C 
BRANCH  29  30
ATOM     30  O   UNL     1       5.256  -0.960  -3.624  0.00  0.00    +0.000 OA
ATOM     31  H   UNL     1       6.126  -0.582  -3.859  0.00  0.00    +0.000 HD
ENDBRANCH  29  30
ENDBRANCH  18  29
ENDBRANCH   1  17
TORSDOF 12
